BSM
  CCTOOLS-0919241035

 45 47  0  0  0  0  0  0  0  0999 V2000
   -5.3760    1.2620    0.0820 C   0  0  0  0  0
   -5.0210    0.0530    0.7560 O   0  0  0  0  0
   -3.6630    0.0160    0.8050 C   0  0  0  0  0
   -3.0220   -1.0560    1.4100 C   0  0  0  0  0
   -1.6440   -1.0980    1.4620 C   0  0  0  0  0
   -2.9210    1.0510    0.2530 C   0  0  0  0  0
   -1.5430    1.0180    0.3060 C   0  0  0  0  0
   -0.8950   -0.0600    0.9070 C   0  0  0  0  0
    0.5830   -0.1000    0.9620 C   0  0  0  0  0
    1.4110   -0.0000    2.1140 C   0  0  0  0  0
    0.9540    0.1600    3.5080 C   0  0  0  0  0
   -0.2340    0.2240    3.7550 O   0  0  0  0  0
    1.8540    0.2360    4.5080 N   0  0  0  0  0
    1.4010    0.3960    5.8920 C   0  0  0  0  0
    2.6140    0.4540    6.8230 C   0  0  0  0  0
    2.6600   -0.0840    1.7070 N   0  0  0  0  0
    2.7210   -0.2200    0.4320 N   0  0  0  0  0
    1.4670   -0.2350   -0.1020 C   0  0  0  0  0
    1.1160   -0.3730   -1.5300 C   0  0  0  0  0
    1.4630    0.6290   -2.4370 C   0  0  0  0  0
    1.1340    0.4960   -3.7690 C   0  0  0  0  0
    1.5670    1.7430   -4.8970 CL  0  0  0  0  0
    0.4570   -0.6340   -4.2130 C   0  0  0  0  0
    0.1360   -0.7590   -5.5270 O   0  0  0  0  0
    0.1090   -1.6350   -3.3180 C   0  0  0  0  0
    0.4390   -1.5140   -1.9800 C   0  0  0  0  0
    0.0990   -2.4940   -1.1030 O   0  0  0  0  0
   -6.4610    1.3370    0.0180 H   0  0  0  0  0
   -4.9850    2.1150    0.6380 H   0  0  0  0  0
   -4.9520    1.2580   -0.9210 H   0  0  0  0  0
   -3.6020   -1.8600    1.8390 H   0  0  0  0  0
   -1.1460   -1.9330    1.9320 H   0  0  0  0  0
   -3.4230    1.8840   -0.2160 H   0  0  0  0  0
   -0.9670    1.8240   -0.1240 H   0  0  0  0  0
    2.8030    0.1840    4.3110 H   0  0  0  0  0
    0.7710   -0.4490    6.1680 H   0  0  0  0  0
    0.8290    1.3190    5.9820 H   0  0  0  0  0
    2.2760    0.5730    7.8520 H   0  0  0  0  0
    3.1860   -0.4690    6.7320 H   0  0  0  0  0
    3.2430    1.3000    6.5470 H   0  0  0  0  0
    3.5420   -0.3010   -0.0770 H   0  0  0  0  0
    1.9890    1.5080   -2.0950 H   0  0  0  0  0
    0.8790   -1.2070   -5.9550 H   0  0  0  0  0
   -0.4160   -2.5120   -3.6670 H   0  0  0  0  0
    0.8660   -3.0780   -1.0240 H   0  0  0  0  0
  1  2  1  0  0  0
  1 28  1  0  0  0
  1 29  1  0  0  0
  1 30  1  0  0  0
  2  3  1  0  0  0
  3  4  2  0  0  0
  3  6  1  0  0  0
  4  5  1  0  0  0
  4 31  1  0  0  0
  5  8  2  0  0  0
  5 32  1  0  0  0
  6  7  2  0  0  0
  6 33  1  0  0  0
  7  8  1  0  0  0
  7 34  1  0  0  0
  8  9  1  0  0  0
  9 10  1  0  0  0
  9 18  2  0  0  0
 10 11  1  0  0  0
 10 16  2  0  0  0
 11 12  2  0  0  0
 11 13  1  0  0  0
 13 14  1  0  0  0
 13 35  1  0  0  0
 14 15  1  0  0  0
 14 36  1  0  0  0
 14 37  1  0  0  0
 15 38  1  0  0  0
 15 39  1  0  0  0
 15 40  1  0  0  0
 16 17  1  0  0  0
 17 18  1  0  0  0
 17 41  1  0  0  0
 18 19  1  0  0  0
 19 20  2  0  0  0
 19 26  1  0  0  0
 20 21  1  0  0  0
 20 42  1  0  0  0
 21 22  1  0  0  0
 21 23  2  0  0  0
 23 24  1  0  0  0
 23 25  1  0  0  0
 24 43  1  0  0  0
 25 26  2  0  0  0
 25 44  1  0  0  0
 26 27  1  0  0  0
 27 45  1  0  0  0
M  END
