2GG
  CCTOOLS-0919241038

 44 46  0  0  0  0  0  0  0  0999 V2000
    2.3860   -2.2020    4.6880 C   0  0  0  0  0
    1.7600   -1.0980    4.0360 O   0  0  0  0  0
    1.8000   -1.0790    2.6760 C   0  0  0  0  0
    1.2070   -0.0280    1.9760 C   0  0  0  0  0
    1.2500   -0.0070    0.5820 C   0  0  0  0  0
    2.4350   -2.1080    1.9820 C   0  0  0  0  0
    2.4780   -2.0870    0.5880 C   0  0  0  0  0
    1.8850   -1.0360   -0.1120 C   0  0  0  0  0
    1.9290   -1.0140   -1.5470 C   0  0  0  0  0
    1.0520   -1.5350   -2.5100 C   0  0  0  0  0
   -0.1720   -2.2570   -2.3010 C   0  0  0  0  0
   -0.6030   -2.4840   -1.1460 O   0  0  0  0  0
   -0.8840   -2.6810   -3.4390 N   0  0  0  0  0
   -2.1390   -3.3950   -3.3940 C   0  0  0  0  0
   -2.5780   -3.6230   -1.9870 C   0  0  0  0  0
    1.4680   -1.2930   -3.7560 N   0  0  0  0  0
    2.9210   -0.4300   -2.2850 C   0  0  0  0  0
    4.1310    0.2850   -1.9880 C   0  0  0  0  0
    5.3300   -0.4220   -1.8430 C   0  0  0  0  0
    6.5150    0.2550   -1.5560 C   0  0  0  0  0
    7.9750   -0.6480   -1.3840 CL  0  0  0  0  0
    6.5090    1.6420   -1.4110 C   0  0  0  0  0
    7.6520    2.3290   -1.1290 O   0  0  0  0  0
    5.3170    2.3530   -1.5550 C   0  0  0  0  0
    4.1320    1.6760   -1.8420 C   0  0  0  0  0
    2.9820    2.3960   -1.9760 O   0  0  0  0  0
    2.6580   -0.5900   -3.6070 O   0  0  0  0  0
    3.4610   -2.0200    4.7620 H   0  0  0  0  0
    2.1980   -3.1160    4.1210 H   0  0  0  0  0
    1.9670   -2.3050    5.6920 H   0  0  0  0  0
    0.7110    0.7770    2.5110 H   0  0  0  0  0
    2.9000   -2.9290    2.5220 H   0  0  0  0  0
    0.7840    0.8200    0.0500 H   0  0  0  0  0
    2.9770   -2.8970    0.0610 H   0  0  0  0  0
   -0.5340   -2.4210   -4.3560 H   0  0  0  0  0
   -2.8820   -2.8010   -3.9350 H   0  0  0  0  0
   -2.0000   -4.3470   -3.9160 H   0  0  0  0  0
   -1.8470   -4.2320   -1.4440 H   0  0  0  0  0
   -2.7160   -2.6720   -1.4620 H   0  0  0  0  0
   -3.5350   -4.1570   -1.9780 H   0  0  0  0  0
    5.3360   -1.5040   -1.9560 H   0  0  0  0  0
    7.8800    2.2270   -0.1920 H   0  0  0  0  0
    5.3120    3.4350   -1.4410 H   0  0  0  0  0
    2.3190    1.8790   -2.4590 H   0  0  0  0  0
  1  2  1  0  0  0
  1 28  1  0  0  0
  1 29  1  0  0  0
  1 30  1  0  0  0
  2  3  1  0  0  0
  3  4  1  0  0  0
  3  6  2  0  0  0
  4  5  2  0  0  0
  4 31  1  0  0  0
  5  8  1  0  0  0
  5 33  1  0  0  0
  6  7  1  0  0  0
  6 32  1  0  0  0
  7  8  2  0  0  0
  7 34  1  0  0  0
  8  9  1  0  0  0
  9 10  1  0  0  0
  9 17  2  0  0  0
 10 11  1  0  0  0
 10 16  2  0  0  0
 11 12  2  0  0  0
 11 13  1  0  0  0
 13 14  1  0  0  0
 13 35  1  0  0  0
 14 15  1  0  0  0
 14 36  1  0  0  0
 14 37  1  0  0  0
 15 38  1  0  0  0
 15 39  1  0  0  0
 15 40  1  0  0  0
 16 27  1  0  0  0
 17 18  1  0  0  0
 17 27  1  0  0  0
 18 19  1  0  0  0
 18 25  2  0  0  0
 19 20  2  0  0  0
 19 41  1  0  0  0
 20 21  1  0  0  0
 20 22  1  0  0  0
 22 23  1  0  0  0
 22 24  2  0  0  0
 23 42  1  0  0  0
 24 25  1  0  0  0
 24 43  1  0  0  0
 25 26  1  0  0  0
 26 44  1  0  0  0
M  END
