2GJ
  CCTOOLS-0919241038

 65 68  0  0  0  0  0  0  0  0999 V2000
   35.4870    4.9960   21.3240 C   0  0  0  0  0
   35.9860    3.5600   21.0790 C   0  0  0  0  0
   36.8710    3.2020   22.1750 O   0  0  0  0  0
   36.1890    3.1500   23.4720 C   0  0  0  0  0
   35.6590    4.5420   23.8420 C   0  0  0  0  0
   34.9570    5.2020   22.7050 N   0  0  0  0  0
   35.1460    6.6380   22.9490 C   0  0  0  0  0
   34.0970    7.1990   23.8990 C   0  0  0  0  0
   32.7330    7.0520   23.5820 C   0  0  0  0  0
   31.7720    7.5550   24.4550 C   0  0  0  0  0
   34.5160    7.8380   25.0770 C   0  0  0  0  0
   33.5580    8.3410   25.9530 C   0  0  0  0  0
   32.1880    8.2030   25.6380 C   0  0  0  0  0
   31.1920    8.7610   26.4740 C   0  0  0  0  0
   30.8160    8.3590   27.7390 C   0  0  0  0  0
   31.4670    7.2140   28.5180 C   0  0  0  0  0
   32.0850    6.3470   27.8920 O   0  0  0  0  0
   31.3180    7.3320   29.8730 N   0  0  0  0  0
   31.8070    6.4480   30.9560 C   0  0  0  0  0
   33.0170    5.6360   30.4970 C   0  0  0  0  0
   29.8220    9.1600   28.1590 N   0  0  0  0  0
   29.5230   10.1560   27.1500 O   0  0  0  0  0
   30.3810    9.8760   26.1290 C   0  0  0  0  0
   30.4470   10.5530   24.9090 C   0  0  0  0  0
   31.7250   10.8640   24.5100 C   0  0  0  0  0
   31.9690   11.5150   23.3220 C   0  0  0  0  0
   33.3810   11.9070   22.9720 C   0  0  0  0  0
   33.4370   13.2730   23.6870 C   0  0  0  0  0
   34.4610   10.9450   23.4980 C   0  0  0  0  0
   30.8980   11.8950   22.5190 C   0  0  0  0  0
   31.1360   12.5340   21.3480 O   0  0  0  0  0
   29.5950   11.5770   22.9210 C   0  0  0  0  0
   29.3470   10.9020   24.1020 C   0  0  0  0  0
   28.0580   10.6360   24.4290 O   0  0  0  0  0
   36.3300    5.6860   21.1710 H   0  0  0  0  0
   34.6620    5.1840   20.6210 H   0  0  0  0  0
   35.1330    2.8660   21.0420 H   0  0  0  0  0
   36.5210    3.4990   20.1200 H   0  0  0  0  0
   35.3470    2.4440   23.4120 H   0  0  0  0  0
   36.9010    2.8180   24.2420 H   0  0  0  0  0
   34.9500    4.4360   24.6760 H   0  0  0  0  0
   36.5200    5.1690   24.1170 H   0  0  0  0  0
   36.1400    6.7910   23.3940 H   0  0  0  0  0
   35.0500    7.1630   21.9870 H   0  0  0  0  0
   32.4350    6.5540   22.6710 H   0  0  0  0  0
   35.5680    7.9380   25.3010 H   0  0  0  0  0
   30.7210    7.4510   24.2300 H   0  0  0  0  0
   33.8600    8.8330   26.8660 H   0  0  0  0  0
   30.8030    8.1330   30.1770 H   0  0  0  0  0
   32.0980    7.0660   31.8180 H   0  0  0  0  0
   31.0010    5.7520   31.2310 H   0  0  0  0  0
   32.9400    5.4410   29.4170 H   0  0  0  0  0
   33.9380    6.2020   30.7020 H   0  0  0  0  0
   33.0450    4.6800   31.0410 H   0  0  0  0  0
   32.5570   10.5910   25.1430 H   0  0  0  0  0
   33.5880   11.9070   21.8920 H   0  0  0  0  0
   33.4500   13.1170   24.7760 H   0  0  0  0  0
   34.3480   13.8090   23.3820 H   0  0  0  0  0
   32.5530   13.8670   23.4130 H   0  0  0  0  0
   35.1730   10.7150   22.6910 H   0  0  0  0  0
   34.9960   11.4170   24.3350 H   0  0  0  0  0
   33.9860   10.0150   23.8430 H   0  0  0  0  0
   31.1920   13.4700   21.5030 H   0  0  0  0  0
   28.7640   11.8660   22.2940 H   0  0  0  0  0
   27.9770   10.5740   25.3740 H   0  0  0  0  0
  1  2  1  0  0  0
  1  6  1  0  0  0
  1 35  1  0  0  0
  1 36  1  0  0  0
  2  3  1  0  0  0
  2 37  1  0  0  0
  2 38  1  0  0  0
  3  4  1  0  0  0
  4  5  1  0  0  0
  4 39  1  0  0  0
  4 40  1  0  0  0
  5  6  1  0  0  0
  5 41  1  0  0  0
  5 42  1  0  0  0
  6  7  1  0  0  0
  7  8  1  0  0  0
  7 43  1  0  0  0
  7 44  1  0  0  0
  8  9  1  0  0  0
  8 11  2  0  0  0
  9 10  2  0  0  0
  9 45  1  0  0  0
 10 13  1  0  0  0
 10 47  1  0  0  0
 11 12  1  0  0  0
 11 46  1  0  0  0
 12 13  2  0  0  0
 12 48  1  0  0  0
 13 14  1  0  0  0
 14 15  1  0  0  0
 14 23  2  0  0  0
 15 16  1  0  0  0
 15 21  2  0  0  0
 16 17  2  0  0  0
 16 18  1  0  0  0
 18 19  1  0  0  0
 18 49  1  0  0  0
 19 20  1  0  0  0
 19 50  1  0  0  0
 19 51  1  0  0  0
 20 52  1  0  0  0
 20 53  1  0  0  0
 20 54  1  0  0  0
 21 22  1  0  0  0
 22 23  1  0  0  0
 23 24  1  0  0  0
 24 25  1  0  0  0
 24 33  2  0  0  0
 25 26  2  0  0  0
 25 55  1  0  0  0
 26 27  1  0  0  0
 26 30  1  0  0  0
 27 28  1  0  0  0
 27 29  1  0  0  0
 27 56  1  0  0  0
 28 57  1  0  0  0
 28 58  1  0  0  0
 28 59  1  0  0  0
 29 60  1  0  0  0
 29 61  1  0  0  0
 29 62  1  0  0  0
 30 31  1  0  0  0
 30 32  2  0  0  0
 31 63  1  0  0  0
 32 33  1  0  0  0
 32 64  1  0  0  0
 33 34  1  0  0  0
 34 65  1  0  0  0
M  END
