YKI
  CCTOOLS-0919241039

 52 58  0  0  1  0  0  0  0  0999 V2000
    7.2230    1.6640   -1.3550 C   0  0  0  0  0
    7.9100    0.6780   -0.8030 N   0  0  0  0  0
    7.3240   -0.3630   -0.2430 C   0  0  0  0  0
    5.0360   -1.3700    0.2770 N   0  0  0  0  0
    5.8570    1.6610   -1.3710 C   0  0  0  0  0
    3.8810    0.2610   -0.6270 N   0  0  0  0  0
    3.7850   -0.8850    0.0060 C   0  0  0  0  0
   -1.9690   -0.5570    0.2380 N   0  0  0  0  0
    5.1770    0.5840   -0.7870 C   0  0  0  0  0
   -6.3740   -0.5840   -2.2250 N   0  0  0  0  0
    5.9420   -0.4550   -0.2170 C   0  0  0  0  0
   -7.7750    0.5660   -0.5360 N   0  0  0  0  0
    2.5180   -1.5570    0.3600 C   0  0  0  0  0
    0.1390   -2.8250    1.0240 C   0  0  0  0  0
    1.2740   -3.5730    0.7620 C   0  0  0  0  0
    2.4590   -2.9480    0.4320 C   0  0  0  0  0
   -3.2000   -0.0990    0.5410 C   0  0  0  0  0
   -4.3080   -0.2660   -0.4220 C   0  0  0  0  0
   -3.3990    0.4520    1.6060 O   0  0  0  0  0
   -4.1070   -0.8960   -1.6530 C   0  0  0  0  0
   -5.1730   -1.0320   -2.5240 C   0  0  0  0  0
   -0.8710   -0.3910    1.1930 C   0  0  0  0  0
    0.1820   -1.4470    0.9630 C   0  0  0  0  0
    1.3650   -0.7950    0.6320 C   0  0  0  0  0
   -0.1850    0.9350    0.9710 C   0  0  0  0  0
    1.1410    0.6700    0.6370 C   0  0  0  0  0
    2.0070    1.7340    0.3740 C   0  0  0  0  0
    1.5450    3.0320    0.4470 C   0  0  0  0  0
    0.2260    3.2850    0.7800 C   0  0  0  0  0
   -0.6370    2.2350    1.0420 C   0  0  0  0  0
   -5.6040    0.2020   -0.1300 C   0  0  0  0  0
   -6.6330    0.0210   -1.0770 C   0  0  0  0  0
   -7.5060    1.0780    0.7030 C   0  0  0  0  0
   -6.2090    0.8890    1.0060 C   0  0  0  0  0
    7.7530    2.4930   -1.7980 H   0  0  0  0  0
    7.9240   -1.1460    0.1960 H   0  0  0  0  0
    5.3110    2.4740   -1.8250 H   0  0  0  0  0
   -1.8110   -0.9960   -0.6120 H   0  0  0  0  0
   -0.7850   -3.3220    1.2820 H   0  0  0  0  0
    1.2320   -4.6510    0.8130 H   0  0  0  0  0
    3.3410   -3.5360    0.2290 H   0  0  0  0  0
   -3.1310   -1.2710   -1.9210 H   0  0  0  0  0
   -5.0160   -1.5190   -3.4750 H   0  0  0  0  0
   -1.2480   -0.4520    2.2130 H   0  0  0  0  0
    3.0370    1.5410    0.1130 H   0  0  0  0  0
    2.2150    3.8530    0.2430 H   0  0  0  0  0
   -0.1300    4.3030    0.8360 H   0  0  0  0  0
   -1.6660    2.4350    1.3010 H   0  0  0  0  0
   -8.2290    1.5630    1.3430 H   0  0  0  0  0
   -5.7110    1.1880    1.9160 H   0  0  0  0  0
    5.2460   -2.2010    0.7310 H   0  0  0  0  0
   -8.6420    0.5850   -0.9700 H   0  0  0  0  0
  1  2  1  0  0  0
  1 35  1  0  0  0
  2  3  2  0  0  0
  3 36  1  0  0  0
  4 51  1  0  0  0
  5  1  2  0  0  0
  5  9  1  0  0  0
  5 37  1  0  0  0
  6  9  1  0  0  0
  6  7  2  0  0  0
  7  4  1  0  0  0
  8 38  1  0  0  0
  9 11  2  0  0  0
 10 21  1  0  0  0
 11  3  1  0  0  0
 11  4  1  0  0  0
 12 32  1  0  0  0
 12 52  1  0  0  0
 13  7  1  0  0  0
 13 16  1  0  0  0
 14 15  1  0  0  0
 14 39  1  0  0  0
 15 16  2  0  0  0
 15 40  1  0  0  0
 16 41  1  0  0  0
 17  8  1  0  0  0
 17 18  1  0  0  0
 18 20  1  0  0  0
 19 17  2  0  0  0
 20 21  2  0  0  0
 20 42  1  0  0  0
 21 43  1  0  0  0
 22  8  1  0  0  0
 22 23  1  0  0  0
 22 44  1  0  0  0
 23 14  2  0  0  0
 23 24  1  0  0  0
 24 13  2  0  0  0
 25 22  1  0  0  0
 25 26  1  0  0  0
 26 24  1  0  0  0
 27 26  2  0  0  0
 27 45  1  0  0  0
 28 27  1  0  0  0
 28 46  1  0  0  0
 29 28  2  0  0  0
 29 30  1  0  0  0
 29 47  1  0  0  0
 30 25  2  0  0  0
 30 48  1  0  0  0
 31 18  2  0  0  0
 31 32  1  0  0  0
 32 10  2  0  0  0
 33 12  1  0  0  0
 33 49  1  0  0  0
 34 31  1  0  0  0
 34 33  2  0  0  0
 34 50  1  0  0  0
M  END
