6FJ
  CCTOOLS-0919241040

 48 51  0  0  0  0  0  0  0  0999 V2000
   -2.0060   -1.8000   -1.6400 C   0  0  0  0  0
    0.8150    2.7450   -0.2220 C   0  0  0  0  0
   -0.2990    3.4970    0.1130 C   0  0  0  0  0
    0.6850    1.3680   -0.4670 C   0  0  0  0  0
   -3.0070    0.8770    0.0820 C   0  0  0  0  0
   -4.5890   -0.6690    0.1060 C   0  0  0  0  0
   -2.3150   -1.4690   -0.3280 C   0  0  0  0  0
   -0.4390   -3.4340   -0.8580 C   0  0  0  0  0
    1.8690    0.5680   -0.8280 C   0  0  0  0  0
    4.5950   -0.8860    0.0720 C   0  0  0  0  0
    5.1110   -1.2630    1.2550 C   0  0  0  0  0
   -1.5420    2.8950    0.2130 C   0  0  0  0  0
   -1.6790    1.5180   -0.0250 C   0  0  0  0  0
   -0.5660    0.7590   -0.3670 C   0  0  0  0  0
   -4.1320    1.4910    0.3210 N   0  0  0  0  0
   -3.2660   -0.4730   -0.0600 N   0  0  0  0  0
   -2.6290    3.6360    0.5420 O   0  0  0  0  0
    2.0300    3.3390   -0.3180 O   0  0  0  0  0
   -5.1540    0.5320    0.3440 N   0  0  0  0  0
   -5.1700   -1.7380    0.0480 O   0  0  0  0  0
   -1.6800   -2.1260    0.7200 C   0  0  0  0  0
   -0.7430   -3.1080    0.4510 C   0  0  0  0  0
    2.2030   -0.5100   -0.0930 N   0  0  0  0  0
    2.5440    0.8820   -1.7900 O   0  0  0  0  0
    3.3020   -1.3790   -0.5240 C   0  0  0  0  0
   -1.0690   -2.7810   -1.9010 C   0  0  0  0  0
    1.4690   -0.8150    1.1370 C   0  0  0  0  0
    5.4260    0.0100   -0.4870 O   0  0  0  0  0
    6.4780    0.2110    0.3230 C   0  0  0  0  0
    6.3260   -0.5580    1.4160 C   0  0  0  0  0
   -1.9780   -1.8070    1.9980 F   0  0  0  0  0
   -2.5000   -1.2940   -2.4560 H   0  0  0  0  0
   -0.1980    4.5560    0.2980 H   0  0  0  0  0
    0.2930   -4.2010   -1.0650 H   0  0  0  0  0
    4.6800   -1.9690    1.9490 H   0  0  0  0  0
   -0.6700   -0.2990   -0.5550 H   0  0  0  0  0
   -3.0920    4.0140   -0.2180 H   0  0  0  0  0
    2.5300    3.3490    0.5090 H   0  0  0  0  0
   -6.0960    0.7020    0.5020 H   0  0  0  0  0
   -0.2500   -3.6200    1.2640 H   0  0  0  0  0
    3.3730   -1.3620   -1.6120 H   0  0  0  0  0
    3.1120   -2.3980   -0.1880 H   0  0  0  0  0
   -0.8320   -3.0420   -2.9220 H   0  0  0  0  0
    1.8910   -0.2430    1.9640 H   0  0  0  0  0
    0.4200   -0.5470    1.0100 H   0  0  0  0  0
    1.5480   -1.8800    1.3540 H   0  0  0  0  0
    7.3060    0.8770    0.1300 H   0  0  0  0  0
    7.0020   -0.6240    2.2560 H   0  0  0  0  0
  1 26  2  0  0  0
  1 32  1  0  0  0
  2 18  1  0  0  0
  3  2  1  0  0  0
  3 33  1  0  0  0
  4  9  1  0  0  0
  4  2  2  0  0  0
  5 13  1  0  0  0
  6 16  1  0  0  0
  7 21  2  0  0  0
  7  1  1  0  0  0
  8 34  1  0  0  0
  9 24  2  0  0  0
 10 25  1  0  0  0
 11 10  2  0  0  0
 11 35  1  0  0  0
 12  3  2  0  0  0
 13 14  2  0  0  0
 13 12  1  0  0  0
 14  4  1  0  0  0
 14 36  1  0  0  0
 15  5  2  0  0  0
 16  5  1  0  0  0
 16  7  1  0  0  0
 17 12  1  0  0  0
 17 37  1  0  0  0
 18 38  1  0  0  0
 19  6  1  0  0  0
 19 15  1  0  0  0
 19 39  1  0  0  0
 20  6  2  0  0  0
 21 22  1  0  0  0
 22  8  2  0  0  0
 22 40  1  0  0  0
 23 25  1  0  0  0
 23  9  1  0  0  0
 25 41  1  0  0  0
 25 42  1  0  0  0
 26  8  1  0  0  0
 26 43  1  0  0  0
 27 23  1  0  0  0
 27 44  1  0  0  0
 27 45  1  0  0  0
 27 46  1  0  0  0
 28 10  1  0  0  0
 29 30  2  0  0  0
 29 28  1  0  0  0
 29 47  1  0  0  0
 30 11  1  0  0  0
 30 48  1  0  0  0
 31 21  1  0  0  0
M  END
