6FF
  CCTOOLS-0919241040

 48 50  0  0  0  0  0  0  0  0999 V2000
   -1.2920    2.6010   -0.1640 C   0  0  0  0  0
   -0.2470    3.4220    0.2330 C   0  0  0  0  0
    1.0190    2.8930    0.4160 C   0  0  0  0  0
    2.5900    0.9560    0.3910 C   0  0  0  0  0
    4.2390   -0.5110    0.5480 C   0  0  0  0  0
    2.0260   -1.4350    0.0470 C   0  0  0  0  0
    1.8030   -1.8360   -1.2650 C   0  0  0  0  0
    0.9280   -2.8740   -1.5290 C   0  0  0  0  0
    1.3710   -2.0790    1.0870 C   0  0  0  0  0
   -4.1740   -3.1010    2.1510 C   0  0  0  0  0
    1.2410    1.5280    0.1980 C   0  0  0  0  0
    0.1840    0.7090   -0.2020 C   0  0  0  0  0
   -1.0740    1.2450   -0.3760 C   0  0  0  0  0
   -2.5330    3.1230   -0.3430 O   0  0  0  0  0
    2.0430    3.6960    0.8040 O   0  0  0  0  0
    3.6720    1.6310    0.6630 N   0  0  0  0  0
    4.7350    0.7240    0.7680 N   0  0  0  0  0
    2.9170   -0.3860    0.3200 N   0  0  0  0  0
    0.2780   -3.5130   -0.4900 C   0  0  0  0  0
    0.4990   -3.1150    0.8160 C   0  0  0  0  0
    4.8710   -1.5530    0.5610 O   0  0  0  0  0
   -2.4070    0.2090   -0.8810 S   0  0  0  0  0
   -3.0500    0.8790   -1.9570 O   0  0  0  0  0
   -1.8770   -1.1040   -0.9880 O   0  0  0  0  0
   -3.4980    0.1720    0.3650 N   0  0  0  0  0
   -3.3850   -0.8500    1.4070 C   0  0  0  0  0
   -4.2920   -2.0330    1.0620 C   0  0  0  0  0
   -4.5760    1.1630    0.4240 C   0  0  0  0  0
    2.4380   -1.2110   -2.2810 F   0  0  0  0  0
   -0.4220    4.4750    0.4010 H   0  0  0  0  0
    0.7530   -3.1870   -2.5480 H   0  0  0  0  0
    1.5430   -1.7700    2.1080 H   0  0  0  0  0
   -4.8200   -3.9440    1.9050 H   0  0  0  0  0
   -3.1400   -3.4420    2.2150 H   0  0  0  0  0
   -4.4770   -2.6790    3.1090 H   0  0  0  0  0
    0.3510   -0.3440   -0.3710 H   0  0  0  0  0
   -2.7010    3.4410   -1.2400 H   0  0  0  0  0
    2.1480    3.7630    1.7630 H   0  0  0  0  0
    5.6600    0.9440    0.9600 H   0  0  0  0  0
   -0.4050   -4.3230   -0.6980 H   0  0  0  0  0
   -0.0110   -3.6160    1.6260 H   0  0  0  0  0
   -2.3520   -1.1910    1.4710 H   0  0  0  0  0
   -3.6880   -0.4280    2.3650 H   0  0  0  0  0
   -3.9890   -2.4560    0.1040 H   0  0  0  0  0
   -5.3250   -1.6920    0.9980 H   0  0  0  0  0
   -5.4480    0.7830   -0.1090 H   0  0  0  0  0
   -4.8400    1.3510    1.4650 H   0  0  0  0  0
   -4.2420    2.0910   -0.0400 H   0  0  0  0  0
  1 14  1  0  0  0
  2  1  2  0  0  0
  2 30  1  0  0  0
  3  2  1  0  0  0
  4 11  1  0  0  0
  5 18  1  0  0  0
  6  9  1  0  0  0
  7  6  2  0  0  0
  7  8  1  0  0  0
  8 19  2  0  0  0
  8 31  1  0  0  0
  9 20  2  0  0  0
  9 32  1  0  0  0
 10 27  1  0  0  0
 10 33  1  0  0  0
 10 34  1  0  0  0
 10 35  1  0  0  0
 11  3  2  0  0  0
 11 12  1  0  0  0
 12 13  2  0  0  0
 12 36  1  0  0  0
 13  1  1  0  0  0
 13 22  1  0  0  0
 14 37  1  0  0  0
 15  3  1  0  0  0
 15 38  1  0  0  0
 16  4  2  0  0  0
 17  5  1  0  0  0
 17 16  1  0  0  0
 17 39  1  0  0  0
 18  4  1  0  0  0
 18  6  1  0  0  0
 19 20  1  0  0  0
 19 40  1  0  0  0
 20 41  1  0  0  0
 21  5  2  0  0  0
 22 24  2  0  0  0
 23 22  2  0  0  0
 25 28  1  0  0  0
 25 22  1  0  0  0
 26 27  1  0  0  0
 26 25  1  0  0  0
 26 42  1  0  0  0
 26 43  1  0  0  0
 27 44  1  0  0  0
 27 45  1  0  0  0
 28 46  1  0  0  0
 28 47  1  0  0  0
 28 48  1  0  0  0
 29  7  1  0  0  0
M  END
