6G7
  CCTOOLS-0919241040

 31 33  0  0  0  0  0  0  0  0999 V2000
   -3.5250    1.1240    0.0230 C   0  0  0  0  0
   -3.6520   -0.2520   -0.1000 C   0  0  0  0  0
   -2.5270   -1.0580   -0.0540 C   0  0  0  0  0
   -0.0570   -1.3340    0.1640 C   0  0  0  0  0
    2.0640   -1.9580    0.2420 C   0  0  0  0  0
    1.6570    0.4580    0.2300 C   0  0  0  0  0
    1.9040    1.1250   -0.9650 C   0  0  0  0  0
    2.3060    2.4480   -0.9440 C   0  0  0  0  0
    1.8090    1.1230    1.4380 C   0  0  0  0  0
   -1.2630   -0.4790    0.1150 C   0  0  0  0  0
   -1.1450    0.9060    0.2370 C   0  0  0  0  0
   -2.2710    1.6990    0.1910 C   0  0  0  0  0
   -4.6300    1.9120   -0.0280 O   0  0  0  0  0
   -2.6490   -2.4050   -0.1730 O   0  0  0  0  0
   -0.0470   -2.6380    0.1630 N   0  0  0  0  0
    1.2880   -3.0610    0.2120 N   0  0  0  0  0
    1.2490   -0.8840    0.2130 N   0  0  0  0  0
    2.4620    3.1060    0.2630 C   0  0  0  0  0
    2.2050    2.4470    1.4510 C   0  0  0  0  0
    3.2810   -1.9360    0.2870 O   0  0  0  0  0
    1.7530    0.4820   -2.1430 F   0  0  0  0  0
   -4.6280   -0.6950   -0.2310 H   0  0  0  0  0
    2.4990    2.9680   -1.8710 H   0  0  0  0  0
    1.6170    0.6080    2.3670 H   0  0  0  0  0
   -0.1720    1.3560    0.3680 H   0  0  0  0  0
   -2.1790    2.7710    0.2850 H   0  0  0  0  0
   -5.0400    2.0710    0.8340 H   0  0  0  0  0
   -2.5990   -2.7260   -1.0840 H   0  0  0  0  0
    1.5990   -3.9800    0.2230 H   0  0  0  0  0
    2.7760    4.1390    0.2760 H   0  0  0  0  0
    2.3280    2.9640    2.3910 H   0  0  0  0  0
  1  2  2  0  0  0
  1 12  1  0  0  0
  2  3  1  0  0  0
  2 22  1  0  0  0
  3 14  1  0  0  0
  3 10  2  0  0  0
  4 17  1  0  0  0
  4 15  2  0  0  0
  5 20  2  0  0  0
  5 16  1  0  0  0
  6  7  1  0  0  0
  6 17  1  0  0  0
  7 21  1  0  0  0
  8  7  2  0  0  0
  8 23  1  0  0  0
  9  6  2  0  0  0
  9 24  1  0  0  0
 10  4  1  0  0  0
 11 10  1  0  0  0
 11 25  1  0  0  0
 12 11  2  0  0  0
 12 26  1  0  0  0
 13  1  1  0  0  0
 13 27  1  0  0  0
 14 28  1  0  0  0
 15 16  1  0  0  0
 16 29  1  0  0  0
 17  5  1  0  0  0
 18  8  1  0  0  0
 18 30  1  0  0  0
 19 18  2  0  0  0
 19  9  1  0  0  0
 19 31  1  0  0  0
M  END
