6GW
  CCTOOLS-0919241041

 51 54  0  0  0  0  0  0  0  0999 V2000
   -1.8560   -2.2120    0.9650 C   0  0  0  0  0
    0.6020    2.6480   -0.4440 C   0  0  0  0  0
   -0.4970    3.4440   -0.1710 C   0  0  0  0  0
    0.4800    1.2490   -0.4240 C   0  0  0  0  0
   -3.1590    0.8510    0.4570 C   0  0  0  0  0
   -4.7440   -0.6660    0.7370 C   0  0  0  0  0
   -2.5680   -1.5130    0.0010 C   0  0  0  0  0
   -0.8160   -3.5180   -0.7510 C   0  0  0  0  0
   -3.1700   -1.0650   -2.3930 C   0  0  0  0  0
    1.6500    0.4010   -0.7140 C   0  0  0  0  0
    3.0800   -1.5060   -0.2090 C   0  0  0  0  0
    1.2880   -0.7330    1.4120 C   0  0  0  0  0
    6.1310   -0.5800    1.7360 C   0  0  0  0  0
    4.9150   -1.1970    1.4960 C   0  0  0  0  0
   -1.7210    2.8650    0.1220 C   0  0  0  0  0
   -1.8510    1.4670    0.1440 C   0  0  0  0  0
   -0.7510    0.6630   -0.1290 C   0  0  0  0  0
   -4.2280    1.4890    0.8450 N   0  0  0  0  0
   -3.4550   -0.4970    0.3810 N   0  0  0  0  0
   -2.7940    3.6490    0.3890 O   0  0  0  0  0
    1.7970    3.2190   -0.7360 O   0  0  0  0  0
   -5.2510    0.5490    1.0300 N   0  0  0  0  0
   -5.3440   -1.7260    0.7840 O   0  0  0  0  0
   -2.3990   -1.8220   -1.3430 C   0  0  0  0  0
   -1.5240   -2.8230   -1.7150 C   0  0  0  0  0
    1.9960   -0.5840    0.1380 N   0  0  0  0  0
    2.3040    0.5910   -1.7220 O   0  0  0  0  0
    4.3900   -0.9540    0.2940 C   0  0  0  0  0
   -0.9770   -3.2090    0.5870 C   0  0  0  0  0
    5.4590    0.1070   -0.6140 S   0  0  0  0  0
    6.5930    0.1630    0.7300 C   0  0  0  0  0
   -1.9850   -1.9740    2.0110 H   0  0  0  0  0
   -0.4010    4.5190   -0.1870 H   0  0  0  0  0
   -0.1320   -4.3010   -1.0450 H   0  0  0  0  0
   -2.5950   -0.1940   -2.7090 H   0  0  0  0  0
   -3.3480   -1.7130   -3.2510 H   0  0  0  0  0
   -4.1240   -0.7390   -1.9800 H   0  0  0  0  0
    2.8940   -2.4760    0.2510 H   0  0  0  0  0
    3.1270   -1.6200   -1.2920 H   0  0  0  0  0
    0.4580   -1.4290    1.2880 H   0  0  0  0  0
    1.9740   -1.1170    2.1670 H   0  0  0  0  0
    0.9050    0.2370    1.7300 H   0  0  0  0  0
    6.6630   -0.6890    2.6700 H   0  0  0  0  0
    4.4290   -1.8270    2.2260 H   0  0  0  0  0
   -0.8490   -0.4120   -0.1130 H   0  0  0  0  0
   -3.3140    3.8830   -0.3920 H   0  0  0  0  0
    2.3550    3.3820    0.0380 H   0  0  0  0  0
   -6.1580    0.7380    1.3170 H   0  0  0  0  0
   -1.3950   -3.0660   -2.7590 H   0  0  0  0  0
   -0.4230   -3.7530    1.3370 H   0  0  0  0  0
    7.5190    0.7180    0.7390 H   0  0  0  0  0
  1  7  2  0  0  0
  1 32  1  0  0  0
  2  3  2  0  0  0
  2  4  1  0  0  0
  3 15  1  0  0  0
  3 33  1  0  0  0
  4 17  2  0  0  0
  5 19  1  0  0  0
  5 18  2  0  0  0
  6 23  2  0  0  0
  6 22  1  0  0  0
  7 24  1  0  0  0
  7 19  1  0  0  0
  8 25  1  0  0  0
  8 34  1  0  0  0
  9 35  1  0  0  0
  9 36  1  0  0  0
  9 37  1  0  0  0
 10  4  1  0  0  0
 10 26  1  0  0  0
 11 26  1  0  0  0
 11 28  1  0  0  0
 11 38  1  0  0  0
 11 39  1  0  0  0
 12 40  1  0  0  0
 12 41  1  0  0  0
 12 42  1  0  0  0
 13 31  2  0  0  0
 13 43  1  0  0  0
 14 13  1  0  0  0
 14 44  1  0  0  0
 15 20  1  0  0  0
 15 16  2  0  0  0
 16  5  1  0  0  0
 17 16  1  0  0  0
 17 45  1  0  0  0
 18 22  1  0  0  0
 19  6  1  0  0  0
 20 46  1  0  0  0
 21  2  1  0  0  0
 21 47  1  0  0  0
 22 48  1  0  0  0
 24  9  1  0  0  0
 25 24  2  0  0  0
 25 49  1  0  0  0
 26 12  1  0  0  0
 27 10  2  0  0  0
 28 14  2  0  0  0
 28 30  1  0  0  0
 29  8  2  0  0  0
 29  1  1  0  0  0
 29 50  1  0  0  0
 30 31  1  0  0  0
 31 51  1  0  0  0
M  END
