6GC
  CCTOOLS-0919241040

 50 52  0  0  0  0  0  0  0  0999 V2000
   -1.1550   -2.2170    1.0430 C   0  0  0  0  0
    0.9310    2.8270   -0.3750 C   0  0  0  0  0
   -0.2450    3.5260   -0.1660 C   0  0  0  0  0
    0.9330    1.4230   -0.3280 C   0  0  0  0  0
   -2.6910    0.7190    0.4100 C   0  0  0  0  0
   -4.1470   -0.9290    0.6600 C   0  0  0  0  0
   -1.8740   -1.5920    0.0340 C   0  0  0  0  0
    0.0810   -3.4470   -0.5990 C   0  0  0  0  0
    2.1840    0.6780   -0.5500 C   0  0  0  0  0
    5.0020   -0.4070    0.6100 C   0  0  0  0  0
    7.4800   -0.5900    0.8730 C   0  0  0  0  0
   -1.4240    2.8460    0.0890 C   0  0  0  0  0
   -1.4320    1.4430    0.1370 C   0  0  0  0  0
   -0.2540    0.7350   -0.0710 C   0  0  0  0  0
   -3.8290    1.2660    0.7390 N   0  0  0  0  0
   -2.8640   -0.6520    0.3540 N   0  0  0  0  0
   -2.5740    3.5360    0.2930 O   0  0  0  0  0
    2.0820    3.4970   -0.6300 O   0  0  0  0  0
   -4.7710    0.2420    0.9040 N   0  0  0  0  0
   -4.6510   -2.0360    0.7080 O   0  0  0  0  0
   -1.6100   -1.9000   -1.2960 C   0  0  0  0  0
   -0.6320   -2.8270   -1.6080 C   0  0  0  0  0
    2.5760   -0.2600    0.3350 N   0  0  0  0  0
    2.8650    0.9100   -1.5310 O   0  0  0  0  0
    3.7510   -1.0880    0.0530 C   0  0  0  0  0
   -0.1760   -3.1380    0.7240 C   0  0  0  0  0
    1.8270   -0.4510    1.5800 C   0  0  0  0  0
    6.2280   -1.2720    0.3160 C   0  0  0  0  0
   -2.3070   -1.2940   -2.2820 F   0  0  0  0  0
   -1.3580   -1.9800    2.0770 H   0  0  0  0  0
   -0.2440    4.6060   -0.2020 H   0  0  0  0  0
    0.8440   -4.1720   -0.8440 H   0  0  0  0  0
    5.1240    0.5690    0.1400 H   0  0  0  0  0
    4.8970   -0.2800    1.6880 H   0  0  0  0  0
    8.3540   -1.2070    0.6630 H   0  0  0  0  0
    7.6020    0.3860    0.4030 H   0  0  0  0  0
    7.3750   -0.4640    1.9510 H   0  0  0  0  0
   -0.2570   -0.3440   -0.0350 H   0  0  0  0  0
   -3.0780    3.7080   -0.5140 H   0  0  0  0  0
    2.5890    3.7240    0.1620 H   0  0  0  0  0
   -5.7030    0.3540    1.1500 H   0  0  0  0  0
   -0.4290   -3.0700   -2.6410 H   0  0  0  0  0
    3.8550   -1.2150   -1.0250 H   0  0  0  0  0
    3.6290   -2.0640    0.5230 H   0  0  0  0  0
    0.3830   -3.6250    1.5100 H   0  0  0  0  0
    1.0650   -1.2160    1.4310 H   0  0  0  0  0
    2.5090   -0.7660    2.3700 H   0  0  0  0  0
    1.3500    0.4870    1.8640 H   0  0  0  0  0
    6.1060   -2.2480    0.7860 H   0  0  0  0  0
    6.3330   -1.3980   -0.7620 H   0  0  0  0  0
  1  7  2  0  0  0
  1 30  1  0  0  0
  2  3  2  0  0  0
  2  4  1  0  0  0
  3 12  1  0  0  0
  3 31  1  0  0  0
  4 14  2  0  0  0
  5 16  1  0  0  0
  5 15  2  0  0  0
  6 20  2  0  0  0
  6 19  1  0  0  0
  7 21  1  0  0  0
  7 16  1  0  0  0
  8 22  1  0  0  0
  8 32  1  0  0  0
  9  4  1  0  0  0
  9 23  1  0  0  0
 10 33  1  0  0  0
 10 34  1  0  0  0
 11 35  1  0  0  0
 11 36  1  0  0  0
 11 37  1  0  0  0
 12 17  1  0  0  0
 12 13  2  0  0  0
 13  5  1  0  0  0
 14 13  1  0  0  0
 14 38  1  0  0  0
 15 19  1  0  0  0
 16  6  1  0  0  0
 17 39  1  0  0  0
 18  2  1  0  0  0
 18 40  1  0  0  0
 19 41  1  0  0  0
 21 29  1  0  0  0
 22 21  2  0  0  0
 22 42  1  0  0  0
 23 27  1  0  0  0
 24  9  2  0  0  0
 25 23  1  0  0  0
 25 10  1  0  0  0
 25 43  1  0  0  0
 25 44  1  0  0  0
 26  8  2  0  0  0
 26  1  1  0  0  0
 26 45  1  0  0  0
 27 46  1  0  0  0
 27 47  1  0  0  0
 27 48  1  0  0  0
 28 10  1  0  0  0
 28 11  1  0  0  0
 28 49  1  0  0  0
 28 50  1  0  0  0
M  END
