70M
  CCTOOLS-0919241044

 55 58  0  0  0  0  0  0  0  0999 V2000
   -5.2800    0.5890    0.3670 C   0  0  0  0  0
   -6.4250    1.2930   -0.0580 C   0  0  0  0  0
   -4.2190    1.5920    0.5120 C   0  0  0  0  0
   -4.7540    2.7770    0.1850 C   0  0  0  0  0
   -2.7990    1.3370    0.9460 C   0  0  0  0  0
   -6.5270   -1.4680    0.3180 C   0  0  0  0  0
   -7.6700   -0.7600   -0.0970 C   0  0  0  0  0
   -1.9620    0.9230   -0.2660 C   0  0  0  0  0
   -6.5930   -2.8860    0.5070 C   0  0  0  0  0
   -0.5190    0.6650    0.1750 C   0  0  0  0  0
    0.3180    0.2500   -1.0360 C   0  0  0  0  0
    2.4790   -0.6230   -1.6930 C   0  0  0  0  0
    3.7540    0.9300    0.3480 C   0  0  0  0  0
    3.8900   -0.9360   -1.1870 C   0  0  0  0  0
    6.7440   -0.5180   -1.2130 C   0  0  0  0  0
    7.5480    0.1930    1.3520 C   0  0  0  0  0
   -5.3350   -0.7890    0.5530 C   0  0  0  0  0
   -6.0710    2.6180   -0.1580 N   0  0  0  0  0
   -7.6130    0.6050   -0.2860 C   0  0  0  0  0
   -8.8310   -1.4250   -0.3260 O   0  0  0  0  0
   -6.6450   -4.0110    0.6560 N   0  0  0  0  0
    1.7030    0.0020   -0.6130 N   0  0  0  0  0
    2.3440    1.2430   -0.1570 C   0  0  0  0  0
    4.5310    0.3050   -0.7310 N   0  0  0  0  0
    5.8430    0.0700   -0.3300 C   0  0  0  0  0
    6.2510    0.4240    0.9520 C   0  0  0  0  0
    8.0410   -0.7570   -0.8180 C   0  0  0  0  0
    8.4540   -0.4020    0.4700 C   0  0  0  0  0
    9.8040   -0.6440    0.8830 C   0  0  0  0  0
   10.8750   -0.8350    1.2100 N   0  0  0  0  0
   -4.2250    3.7190    0.1910 H   0  0  0  0  0
   -2.3830    2.2470    1.3800 H   0  0  0  0  0
   -2.7830    0.5400    1.6890 H   0  0  0  0  0
   -2.3770    0.0140   -0.7000 H   0  0  0  0  0
   -1.9770    1.7200   -1.0080 H   0  0  0  0  0
   -0.1040    1.5740    0.6100 H   0  0  0  0  0
   -0.5040   -0.1330    0.9180 H   0  0  0  0  0
   -0.0970   -0.6590   -1.4710 H   0  0  0  0  0
    0.3020    1.0480   -1.7790 H   0  0  0  0  0
    2.5400    0.0610   -2.5400 H   0  0  0  0  0
    1.9910   -1.5460   -2.0050 H   0  0  0  0  0
    4.2420    1.8530    0.6600 H   0  0  0  0  0
    3.6930    0.2470    1.1950 H   0  0  0  0  0
    3.8300   -1.6410   -0.3580 H   0  0  0  0  0
    4.4770   -1.3740   -1.9950 H   0  0  0  0  0
    6.4240   -0.7930   -2.2070 H   0  0  0  0  0
    7.8630    0.4680    2.3480 H   0  0  0  0  0
   -4.4570   -1.3290    0.8780 H   0  0  0  0  0
   -6.6650    3.3340   -0.4310 H   0  0  0  0  0
   -8.4950    1.1430   -0.6040 H   0  0  0  0  0
   -9.4010   -1.5010    0.4510 H   0  0  0  0  0
    1.7570    1.6810    0.6500 H   0  0  0  0  0
    2.4030    1.9480   -0.9870 H   0  0  0  0  0
    5.5490    0.8810    1.6350 H   0  0  0  0  0
    8.7380   -1.2180   -1.5020 H   0  0  0  0  0
  1  2  2  0  0  0
  1  3  1  0  0  0
  2 18  1  0  0  0
  3  4  2  0  0  0
  4 31  1  0  0  0
  5  3  1  0  0  0
  5 32  1  0  0  0
  5 33  1  0  0  0
  6 17  2  0  0  0
  6  7  1  0  0  0
  7 19  2  0  0  0
  8 10  1  0  0  0
  8  5  1  0  0  0
  8 34  1  0  0  0
  8 35  1  0  0  0
  9  6  1  0  0  0
 10 36  1  0  0  0
 10 37  1  0  0  0
 11 10  1  0  0  0
 11 38  1  0  0  0
 11 39  1  0  0  0
 12 14  1  0  0  0
 12 40  1  0  0  0
 12 41  1  0  0  0
 13 23  1  0  0  0
 13 24  1  0  0  0
 13 42  1  0  0  0
 13 43  1  0  0  0
 14 44  1  0  0  0
 14 45  1  0  0  0
 15 46  1  0  0  0
 16 26  2  0  0  0
 16 28  1  0  0  0
 16 47  1  0  0  0
 17  1  1  0  0  0
 17 48  1  0  0  0
 18  4  1  0  0  0
 18 49  1  0  0  0
 19  2  1  0  0  0
 19 50  1  0  0  0
 20  7  1  0  0  0
 20 51  1  0  0  0
 21  9  3  0  0  0
 22 11  1  0  0  0
 22 12  1  0  0  0
 23 22  1  0  0  0
 23 52  1  0  0  0
 23 53  1  0  0  0
 24 14  1  0  0  0
 25 24  1  0  0  0
 25 15  2  0  0  0
 26 25  1  0  0  0
 26 54  1  0  0  0
 27 15  1  0  0  0
 27 55  1  0  0  0
 28 27  2  0  0  0
 29 28  1  0  0  0
 30 29  3  0  0  0
M  END
