70O
  CCTOOLS-0919241044

 69 72  0  0  0  0  0  0  0  0999 V2000
   -2.2080   -0.3710    0.9250 C   0  0  0  0  0
   -1.5150    0.5800    0.1870 C   0  0  0  0  0
   -2.1920    1.3670   -0.7360 C   0  0  0  0  0
   -5.7210    0.0770   -0.3810 C   0  0  0  0  0
    0.6040   -0.1950    1.2160 C   0  0  0  0  0
    0.5040    1.7680   -0.2230 C   0  0  0  0  0
    1.9670    1.8910   -0.1000 C   0  0  0  0  0
    2.7240    0.7630    0.1520 C   0  0  0  0  0
    3.9160    3.3230   -0.1430 C   0  0  0  0  0
    2.5720    3.1610   -0.2470 C   0  0  0  0  0
    5.1550   -0.0100    0.5110 C   0  0  0  0  0
    5.0150   -1.4940    0.7320 C   0  0  0  0  0
    4.8390   -3.7170   -0.3960 C   0  0  0  0  0
   -9.6080   -1.5880    0.2520 C   0  0  0  0  0
    4.8040   -4.4320   -1.7480 C   0  0  0  0  0
    3.5410   -3.9990    0.3640 C   0  0  0  0  0
    6.0290   -4.2250    0.4200 C   0  0  0  0  0
   -3.5510    1.2010   -0.9170 C   0  0  0  0  0
   -4.2380    0.2540   -0.1810 C   0  0  0  0  0
   -3.5670   -0.5350    0.7350 C   0  0  0  0  0
   -0.1390    0.7450    0.3730 N   0  0  0  0  0
   -0.1240    2.5910   -0.8630 O   0  0  0  0  0
    1.7920    4.2430   -0.4990 O   0  0  0  0  0
    4.7410    2.2070    0.1200 C   0  0  0  0  0
    4.1200    0.8800    0.2690 C   0  0  0  0  0
    6.3000    0.6830    0.5120 N   0  0  0  0  0
    6.0410    2.0370    0.2740 N   0  0  0  0  0
    4.9800   -2.2100   -0.6200 C   0  0  0  0  0
   -6.0090   -1.3580   -0.8310 C   0  0  0  0  0
   -7.5210   -1.5490   -0.9730 C   0  0  0  0  0
   -8.1730   -1.2810    0.3150 N   0  0  0  0  0
   -7.9500    0.1060    0.7440 C   0  0  0  0  0
   -6.4510    0.3460    0.9380 C   0  0  0  0  0
   -1.6850   -0.9840    1.6430 H   0  0  0  0  0
   -1.6560    2.1070   -1.3110 H   0  0  0  0  0
   -6.0730    0.7750   -1.1410 H   0  0  0  0  0
    0.8680   -1.0770    0.6320 H   0  0  0  0  0
    1.5120    0.2840    1.5820 H   0  0  0  0  0
   -0.0160   -0.4930    2.0620 H   0  0  0  0  0
    2.2480   -0.2000    0.2590 H   0  0  0  0  0
    4.3540    4.3030   -0.2600 H   0  0  0  0  0
    5.8630   -1.8560    1.3130 H   0  0  0  0  0
    4.0910   -1.6950    1.2730 H   0  0  0  0  0
   -9.7440   -2.6410    0.0050 H   0  0  0  0  0
  -10.0670   -1.3800    1.2190 H   0  0  0  0  0
  -10.0790   -0.9710   -0.5130 H   0  0  0  0  0
    3.9560   -4.0700   -2.3290 H   0  0  0  0  0
    5.7280   -4.2310   -2.2890 H   0  0  0  0  0
    4.7030   -5.5060   -1.5880 H   0  0  0  0  0
    3.5660   -3.4890    1.3270 H   0  0  0  0  0
    2.6930   -3.6370   -0.2170 H   0  0  0  0  0
    3.4400   -5.0730    0.5240 H   0  0  0  0  0
    5.9280   -5.2990    0.5800 H   0  0  0  0  0
    6.9530   -4.0240   -0.1210 H   0  0  0  0  0
    6.0530   -3.7150    1.3830 H   0  0  0  0  0
   -4.0790    1.8160   -1.6320 H   0  0  0  0  0
   -4.1060   -1.2760    1.3060 H   0  0  0  0  0
    1.6500    4.4160   -1.4400 H   0  0  0  0  0
    7.1800    0.3020    0.6590 H   0  0  0  0  0
    4.1330   -1.8480   -1.2020 H   0  0  0  0  0
    5.9050   -2.0090   -1.1620 H   0  0  0  0  0
   -5.5270   -1.5420   -1.7910 H   0  0  0  0  0
   -5.6220   -2.0570   -0.0890 H   0  0  0  0  0
   -7.9050   -0.8600   -1.7250 H   0  0  0  0  0
   -7.7300   -2.5740   -1.2800 H   0  0  0  0  0
   -8.3320    0.7870   -0.0160 H   0  0  0  0  0
   -8.4710    0.2830    1.6850 H   0  0  0  0  0
   -6.0710   -0.3260    1.7080 H   0  0  0  0  0
   -6.2850    1.3800    1.2420 H   0  0  0  0  0
  1 34  1  0  0  0
  2  1  1  0  0  0
  2 21  1  0  0  0
  3  2  2  0  0  0
  3 35  1  0  0  0
  4 33  1  0  0  0
  4 19  1  0  0  0
  4 36  1  0  0  0
  5 37  1  0  0  0
  5 38  1  0  0  0
  5 39  1  0  0  0
  6 21  1  0  0  0
  6 22  2  0  0  0
  7  6  1  0  0  0
  8  7  2  0  0  0
  8 40  1  0  0  0
  9 10  2  0  0  0
  9 41  1  0  0  0
 10 23  1  0  0  0
 10  7  1  0  0  0
 11 12  1  0  0  0
 11 25  2  0  0  0
 12 28  1  0  0  0
 12 42  1  0  0  0
 12 43  1  0  0  0
 13 16  1  0  0  0
 13 17  1  0  0  0
 14 31  1  0  0  0
 14 44  1  0  0  0
 14 45  1  0  0  0
 14 46  1  0  0  0
 15 13  1  0  0  0
 15 47  1  0  0  0
 15 48  1  0  0  0
 15 49  1  0  0  0
 16 50  1  0  0  0
 16 51  1  0  0  0
 16 52  1  0  0  0
 17 53  1  0  0  0
 17 54  1  0  0  0
 17 55  1  0  0  0
 18 19  2  0  0  0
 18  3  1  0  0  0
 18 56  1  0  0  0
 19 20  1  0  0  0
 20  1  2  0  0  0
 20 57  1  0  0  0
 21  5  1  0  0  0
 23 58  1  0  0  0
 24  9  1  0  0  0
 24 25  1  0  0  0
 25  8  1  0  0  0
 26 11  1  0  0  0
 26 59  1  0  0  0
 27 26  1  0  0  0
 27 24  2  0  0  0
 28 13  1  0  0  0
 28 60  1  0  0  0
 28 61  1  0  0  0
 29  4  1  0  0  0
 29 62  1  0  0  0
 29 63  1  0  0  0
 30 31  1  0  0  0
 30 29  1  0  0  0
 30 64  1  0  0  0
 30 65  1  0  0  0
 31 32  1  0  0  0
 32 33  1  0  0  0
 32 66  1  0  0  0
 32 67  1  0  0  0
 33 68  1  0  0  0
 33 69  1  0  0  0
M  END
