72K
  CCTOOLS-0919241044

 66 71  0  0  0  0  0  0  0  0999 V2000
    8.5410    1.4560    1.3210 C   0  0  0  0  0
    8.6630    2.0320    0.0580 C   0  0  0  0  0
    2.2450   -3.4520    0.9730 C   0  0  0  0  0
    7.4780    0.6620    1.6260 C   0  0  0  0  0
    3.3670   -2.6740    0.7330 C   0  0  0  0  0
   -3.2090   -3.1810   -0.4240 C   0  0  0  0  0
    7.7260    1.8190   -0.9050 C   0  0  0  0  0
    0.9870   -2.9890    0.6560 C   0  0  0  0  0
   -1.9120   -2.7600   -0.4780 C   0  0  0  0  0
    5.3760   -0.3890    0.9360 C   0  0  0  0  0
   -2.5990   -0.5000    0.0100 C   0  0  0  0  0
    4.6370    0.0280   -1.3230 C   0  0  0  0  0
    6.4880    0.4250    0.6580 C   0  0  0  0  0
    1.9560   -0.9230   -0.1500 C   0  0  0  0  0
    3.2390   -1.4110    0.1740 C   0  0  0  0  0
    4.4390   -0.5770   -0.0700 C   0  0  0  0  0
   -4.2330   -2.2680   -0.1520 C   0  0  0  0  0
    6.6130    1.0050   -0.6300 C   0  0  0  0  0
    0.8280   -1.7290    0.0890 C   0  0  0  0  0
   -1.5960   -1.4200   -0.2620 C   0  0  0  0  0
   -3.9200   -0.9170    0.0730 C   0  0  0  0  0
    1.4870    0.2900   -0.7060 C   0  0  0  0  0
   -5.6330   -2.7210   -0.1000 C   0  0  0  0  0
   -4.6250    2.0520   -0.9470 C   0  0  0  0  0
   -5.6630    2.1160    1.3240 C   0  0  0  0  0
   -4.2980    3.5430   -0.8400 C   0  0  0  0  0
   -5.3350    3.6060    1.4320 C   0  0  0  0  0
   -4.6160    1.4250    0.4480 C   0  0  0  0  0
   -5.3450    4.2330    0.0360 C   0  0  0  0  0
    2.3460    1.4560   -1.1220 C   0  0  0  0  0
    5.6790    0.7820   -1.5610 N   0  0  0  0  0
    0.1890    0.2320   -0.8000 N   0  0  0  0  0
   -0.2660   -1.0020   -0.3190 N   0  0  0  0  0
   -5.9430   -3.9900   -0.4320 N   0  0  0  0  0
   -4.9290   -0.0020    0.3450 N   0  0  0  0  0
   -6.5100   -1.9500    0.2410 O   0  0  0  0  0
   -5.0390    5.6250    0.1370 O   0  0  0  0  0
    9.3020    1.6380    2.0660 H   0  0  0  0  0
    9.5160    2.6580   -0.1600 H   0  0  0  0  0
    2.3590   -4.4330    1.4090 H   0  0  0  0  0
    7.3960    0.2180    2.6070 H   0  0  0  0  0
    4.3470   -3.0530    0.9840 H   0  0  0  0  0
   -3.4460   -4.2210   -0.5970 H   0  0  0  0  0
    7.8390    2.2700   -1.8800 H   0  0  0  0  0
    0.1220   -3.6070    0.8490 H   0  0  0  0  0
   -1.1250   -3.4690   -0.6880 H   0  0  0  0  0
    5.2540   -0.8530    1.9040 H   0  0  0  0  0
   -2.3500    0.5370    0.1820 H   0  0  0  0  0
    3.9050   -0.1220   -2.1030 H   0  0  0  0  0
   -5.6110    1.9280   -1.3950 H   0  0  0  0  0
   -3.8790    1.5600   -1.5720 H   0  0  0  0  0
   -5.6560    1.6690    2.3190 H   0  0  0  0  0
   -6.6490    1.9920    0.8770 H   0  0  0  0  0
   -3.3110    3.6660   -0.3930 H   0  0  0  0  0
   -4.3040    3.9890   -1.8340 H   0  0  0  0  0
   -6.0820    4.0980    2.0560 H   0  0  0  0  0
   -4.3490    3.7300    1.8790 H   0  0  0  0  0
   -3.6290    1.5490    0.8950 H   0  0  0  0  0
   -6.3310    4.1090   -0.4110 H   0  0  0  0  0
    2.6400    1.3370   -2.1650 H   0  0  0  0  0
    1.7840    2.3820   -1.0050 H   0  0  0  0  0
    3.2380    1.4910   -0.4950 H   0  0  0  0  0
   -5.2440   -4.6050   -0.7040 H   0  0  0  0  0
   -6.8660   -4.2890   -0.3980 H   0  0  0  0  0
   -5.8420   -0.3080    0.4670 H   0  0  0  0  0
   -5.6630    6.1270    0.6790 H   0  0  0  0  0
  1  4  1  0  0  0
  1 38  1  0  0  0
  2  1  2  0  0  0
  2 39  1  0  0  0
  3  5  1  0  0  0
  3 40  1  0  0  0
  4 41  1  0  0  0
  5 42  1  0  0  0
  6 17  1  0  0  0
  6 43  1  0  0  0
  7 18  2  0  0  0
  7  2  1  0  0  0
  7 44  1  0  0  0
  8  3  2  0  0  0
  8 45  1  0  0  0
  9  6  2  0  0  0
  9 20  1  0  0  0
  9 46  1  0  0  0
 10 47  1  0  0  0
 11 21  1  0  0  0
 11 48  1  0  0  0
 12 16  1  0  0  0
 12 49  1  0  0  0
 13 10  1  0  0  0
 13  4  2  0  0  0
 14 15  1  0  0  0
 15 16  1  0  0  0
 15  5  2  0  0  0
 16 10  2  0  0  0
 17 23  1  0  0  0
 17 21  2  0  0  0
 18 13  1  0  0  0
 19 14  2  0  0  0
 19  8  1  0  0  0
 20 11  2  0  0  0
 21 35  1  0  0  0
 22 14  1  0  0  0
 23 36  2  0  0  0
 24 26  1  0  0  0
 24 50  1  0  0  0
 24 51  1  0  0  0
 25 27  1  0  0  0
 25 52  1  0  0  0
 25 53  1  0  0  0
 26 29  1  0  0  0
 26 54  1  0  0  0
 26 55  1  0  0  0
 27 29  1  0  0  0
 27 56  1  0  0  0
 27 57  1  0  0  0
 28 25  1  0  0  0
 28 24  1  0  0  0
 28 58  1  0  0  0
 29 37  1  0  0  0
 29 59  1  0  0  0
 30 22  1  0  0  0
 30 60  1  0  0  0
 30 61  1  0  0  0
 30 62  1  0  0  0
 31 12  2  0  0  0
 31 18  1  0  0  0
 32 22  2  0  0  0
 32 33  1  0  0  0
 33 20  1  0  0  0
 33 19  1  0  0  0
 34 23  1  0  0  0
 34 63  1  0  0  0
 34 64  1  0  0  0
 35 28  1  0  0  0
 35 65  1  0  0  0
 37 66  1  0  0  0
M  END
