72Y
  CCTOOLS-0919241044

 34 36  0  0  0  0  0  0  0  0999 V2000
   -3.0190   -1.8250    0.1950 C   0  0  0  0  0
   -1.9210    2.1360    0.1840 C   0  0  0  0  0
   -2.5030    0.7990    0.0620 C   0  0  0  0  0
   -3.8690   -1.0300   -0.4440 N   0  0  0  0  0
   -1.6230   -0.0750    0.7320 C   0  0  0  0  0
   -0.7840    2.0020    0.8830 C   0  0  0  0  0
    0.5440    0.1680    1.9810 C   0  0  0  0  0
    1.6050   -0.3260    1.0310 C   0  0  0  0  0
    2.5860    0.5420    0.5930 C   0  0  0  0  0
    3.5580    0.0770   -0.2820 C   0  0  0  0  0
   -3.6510    0.2720   -0.5330 C   0  0  0  0  0
   -4.7690    1.3030   -1.3700 CL  0  0  0  0  0
   -1.9200   -1.3700    0.7720 N   0  0  0  0  0
   -3.2960   -3.1810    0.2640 N   0  0  0  0  0
   -0.5940    0.6850    1.2170 N   0  0  0  0  0
    3.5040   -1.2510   -0.6840 C   0  0  0  0  0
    2.4920   -2.0580   -0.2030 C   0  0  0  0  0
    1.5880   -1.5830    0.6320 N   0  0  0  0  0
    4.8110    1.1300   -0.8600 CL  0  0  0  0  0
    4.5360   -1.8040   -1.6330 C   0  0  0  0  0
    2.6010    1.9750    1.0590 C   0  0  0  0  0
   -2.3290    3.0550   -0.2120 H   0  0  0  0  0
   -0.1170    2.8110    1.1450 H   0  0  0  0  0
    0.2130   -0.6550    2.6150 H   0  0  0  0  0
    0.9550    0.9630    2.6030 H   0  0  0  0  0
   -4.1000   -3.5330   -0.1500 H   0  0  0  0  0
   -2.6880   -3.7770    0.7260 H   0  0  0  0  0
    2.4420   -3.0920   -0.5110 H   0  0  0  0  0
    5.3760   -2.2030   -1.0640 H   0  0  0  0  0
    4.0900   -2.5990   -2.2300 H   0  0  0  0  0
    4.8870   -1.0090   -2.2910 H   0  0  0  0  0
    3.1960    2.0550    1.9690 H   0  0  0  0  0
    3.0380    2.6050    0.2830 H   0  0  0  0  0
    1.5820    2.3020    1.2610 H   0  0  0  0  0
  1  4  1  0  0  0
  2 22  1  0  0  0
  3  2  1  0  0  0
  3 11  1  0  0  0
  4 11  2  0  0  0
  5  3  2  0  0  0
  6  2  2  0  0  0
  6 23  1  0  0  0
  7  8  1  0  0  0
  7 15  1  0  0  0
  7 24  1  0  0  0
  7 25  1  0  0  0
  8  9  1  0  0  0
  9 21  1  0  0  0
  9 10  2  0  0  0
 10 19  1  0  0  0
 11 12  1  0  0  0
 13  1  2  0  0  0
 13  5  1  0  0  0
 14  1  1  0  0  0
 14 26  1  0  0  0
 14 27  1  0  0  0
 15  5  1  0  0  0
 15  6  1  0  0  0
 16 10  1  0  0  0
 16 20  1  0  0  0
 17 16  2  0  0  0
 17 28  1  0  0  0
 18  8  2  0  0  0
 18 17  1  0  0  0
 20 29  1  0  0  0
 20 30  1  0  0  0
 20 31  1  0  0  0
 21 32  1  0  0  0
 21 33  1  0  0  0
 21 34  1  0  0  0
M  END
