73J
  CCTOOLS-0919241044

 53 59  0  0  1  0  0  0  0  0999 V2000
    4.6020    0.1390   -0.4840 C   0  0  0  0  0
    7.7420   -1.2850    0.7050 C   0  0  0  0  0
    6.4660   -0.9890    1.0130 C   0  0  0  0  0
    5.8750   -0.3780   -0.1730 C   0  0  0  0  0
    6.8890   -0.3510   -1.1510 C   0  0  0  0  0
    3.5100    0.1310    0.5110 C   0  0  0  0  0
    6.6390    0.1570   -2.3480 N   0  0  0  0  0
    0.8880   -1.9900    1.3450 C   0  0  0  0  0
   -1.3380   -2.7670    0.9090 C   0  0  0  0  0
   -0.0200   -3.0290    1.2360 C   0  0  0  0  0
    4.4100    0.6640   -1.7640 C   0  0  0  0  0
    5.4590    0.6460   -2.6670 C   0  0  0  0  0
    8.0090   -0.9110   -0.5820 N   0  0  0  0  0
    2.3010    0.6320    0.1880 N   0  0  0  0  0
    3.7020   -0.3270    1.6200 O   0  0  0  0  0
   -1.7550   -1.4710    0.6890 C   0  0  0  0  0
   -0.8440   -0.4180    0.7900 C   0  0  0  0  0
    0.4810   -0.6920    1.1260 C   0  0  0  0  0
    1.2180    0.6240    1.1740 C   0  0  0  0  0
   -1.0150    1.0430    0.6120 C   0  0  0  0  0
    0.1990    1.6840    0.8350 C   0  0  0  0  0
    0.2930    3.0570    0.7270 C   0  0  0  0  0
   -0.8210    3.8110    0.3960 C   0  0  0  0  0
   -2.0350    3.1950    0.1710 C   0  0  0  0  0
   -2.1470    1.8100    0.2750 C   0  0  0  0  0
   -3.4460    1.1500    0.0330 C   0  0  0  0  0
   -4.6720    1.7130    0.2690 N   0  0  0  0  0
   -3.5990   -0.0620   -0.4450 N   0  0  0  0  0
   -4.9190   -0.3510   -0.5390 C   0  0  0  0  0
   -5.6260    0.7770   -0.0850 C   0  0  0  0  0
   -7.0130    0.7660   -0.0690 C   0  0  0  0  0
   -7.6960   -0.3520   -0.4990 C   0  0  0  0  0
   -7.0040   -1.4700   -0.9490 C   0  0  0  0  0
   -5.6260   -1.4760   -0.9750 C   0  0  0  0  0
   -7.6870   -2.5580   -1.3670 F   0  0  0  0  0
    8.4500   -1.7500    1.3750 H   0  0  0  0  0
    5.9740   -1.1700    1.9570 H   0  0  0  0  0
    1.9160   -2.1970    1.6050 H   0  0  0  0  0
   -2.0440   -3.5800    0.8300 H   0  0  0  0  0
    0.3010   -4.0460    1.4070 H   0  0  0  0  0
    3.4520    1.0760   -2.0480 H   0  0  0  0  0
    5.3080    1.0530   -3.6560 H   0  0  0  0  0
    8.8630   -1.0230   -1.0280 H   0  0  0  0  0
    2.1480    0.9970   -0.6980 H   0  0  0  0  0
   -2.7860   -1.2700    0.4380 H   0  0  0  0  0
    1.6190    0.7930    2.1730 H   0  0  0  0  0
    1.2400    3.5460    0.9020 H   0  0  0  0  0
   -0.7390    4.8840    0.3140 H   0  0  0  0  0
   -2.9010    3.7880   -0.0870 H   0  0  0  0  0
   -4.8390    2.6020    0.6190 H   0  0  0  0  0
   -7.5570    1.6310    0.2800 H   0  0  0  0  0
   -8.7760   -0.3590   -0.4860 H   0  0  0  0  0
   -5.0950   -2.3470   -1.3280 H   0  0  0  0  0
  1  6  1  0  0  0
  1  4  2  0  0  0
  2 36  1  0  0  0
  3  2  2  0  0  0
  3 37  1  0  0  0
  4  3  1  0  0  0
  5  4  1  0  0  0
  5 13  1  0  0  0
  6 15  2  0  0  0
  6 14  1  0  0  0
  7  5  2  0  0  0
  8 18  2  0  0  0
  8 38  1  0  0  0
  9 16  1  0  0  0
  9 39  1  0  0  0
 10  9  2  0  0  0
 10  8  1  0  0  0
 10 40  1  0  0  0
 11  1  1  0  0  0
 11 41  1  0  0  0
 12 11  2  0  0  0
 12  7  1  0  0  0
 12 42  1  0  0  0
 13  2  1  0  0  0
 13 43  1  0  0  0
 14 19  1  0  0  0
 14 44  1  0  0  0
 16 17  2  0  0  0
 16 45  1  0  0  0
 17 20  1  0  0  0
 18 17  1  0  0  0
 18 19  1  0  0  0
 19 21  1  0  0  0
 19 46  1  0  0  0
 20 21  2  0  0  0
 20 25  1  0  0  0
 21 22  1  0  0  0
 22 23  2  0  0  0
 22 47  1  0  0  0
 23 48  1  0  0  0
 24 23  1  0  0  0
 24 49  1  0  0  0
 25 24  2  0  0  0
 26 25  1  0  0  0
 26 27  1  0  0  0
 27 50  1  0  0  0
 28 29  1  0  0  0
 28 26  2  0  0  0
 29 30  1  0  0  0
 30 27  1  0  0  0
 30 31  2  0  0  0
 31 51  1  0  0  0
 32 31  1  0  0  0
 32 52  1  0  0  0
 33 35  1  0  0  0
 33 32  2  0  0  0
 34 29  2  0  0  0
 34 33  1  0  0  0
 34 53  1  0  0  0
M  END
