73Y
  CCTOOLS-0919241044

 54 60  0  0  1  0  0  0  0  0999 V2000
    2.4840   -1.3030   -0.5870 C   0  0  0  0  0
    1.5610   -0.2660   -0.7450 C   0  0  0  0  0
    0.2960   -0.5500   -1.2560 C   0  0  0  0  0
   -0.4720    0.7470   -1.3110 C   0  0  0  0  0
    1.6620    1.1840   -0.4560 C   0  0  0  0  0
    0.4640    1.8080   -0.7850 C   0  0  0  0  0
    0.3130    3.1670   -0.6040 C   0  0  0  0  0
    1.3540    3.9240   -0.0920 C   0  0  0  0  0
    2.5510    3.3230    0.2420 C   0  0  0  0  0
    2.7180    1.9530    0.0650 C   0  0  0  0  0
    4.0030    1.3080    0.4230 C   0  0  0  0  0
   -0.0400   -1.8420   -1.6030 C   0  0  0  0  0
    2.1400   -2.5910   -0.9430 C   0  0  0  0  0
    0.8800   -2.8630   -1.4440 C   0  0  0  0  0
   -1.6660    0.6630   -0.4660 N   0  0  0  0  0
   -4.2720   -1.0650    0.6600 C   0  0  0  0  0
   -5.4080   -1.1030    1.4510 C   0  0  0  0  0
   -6.2560   -0.0960    1.4870 N   0  0  0  0  0
   -4.0140    0.0700   -0.1130 C   0  0  0  0  0
   -4.9390    1.1320   -0.0530 C   0  0  0  0  0
   -6.0700    1.0010    0.7760 C   0  0  0  0  0
   -6.7790    2.1760    0.6300 N   0  0  0  0  0
   -6.0910    2.9570   -0.2450 C   0  0  0  0  0
   -5.0140    2.3410   -0.6420 N   0  0  0  0  0
   -2.8100    0.1550   -0.9650 C   0  0  0  0  0
   -2.8520   -0.2330   -2.1160 O   0  0  0  0  0
    4.7150    0.5910   -0.5280 C   0  0  0  0  0
    5.6450    0.8630    2.0720 N   0  0  0  0  0
    4.5130    1.4220    1.7270 C   0  0  0  0  0
    6.3730    0.1550    1.2000 C   0  0  0  0  0
    5.9280   -0.0010   -0.1370 C   0  0  0  0  0
    6.7030   -0.7430   -1.0440 C   0  0  0  0  0
    7.8730   -1.3020   -0.6290 C   0  0  0  0  0
    8.3120   -1.1500    0.6840 C   0  0  0  0  0
    7.5850   -0.4380    1.5890 C   0  0  0  0  0
   -3.0770   -2.5300    0.6330 BR  0  0  0  0  0
    3.4670   -1.0960   -0.1920 H   0  0  0  0  0
   -0.7540    0.9730   -2.3400 H   0  0  0  0  0
   -0.6210    3.6440   -0.8620 H   0  0  0  0  0
    1.2280    4.9880    0.0470 H   0  0  0  0  0
    3.3600    3.9180    0.6400 H   0  0  0  0  0
   -1.0210   -2.0560   -1.9980 H   0  0  0  0  0
    2.8550   -3.3910   -0.8200 H   0  0  0  0  0
    0.6150   -3.8740   -1.7150 H   0  0  0  0  0
   -1.6330    0.9730    0.4520 H   0  0  0  0  0
   -5.6030   -1.9800    2.0510 H   0  0  0  0  0
   -7.6130    2.4030    1.0700 H   0  0  0  0  0
   -6.3930    3.9430   -0.5650 H   0  0  0  0  0
    4.3470    0.4910   -1.5390 H   0  0  0  0  0
    3.9580    1.9850    2.4630 H   0  0  0  0  0
    6.3730   -0.8680   -2.0650 H   0  0  0  0  0
    8.4680   -1.8720   -1.3270 H   0  0  0  0  0
    9.2430   -1.6040    0.9890 H   0  0  0  0  0
    7.9420   -0.3270    2.6030 H   0  0  0  0  0
  1  2  1  0  0  0
  1 37  1  0  0  0
  2  5  1  0  0  0
  3  4  1  0  0  0
  3  2  2  0  0  0
  4  6  1  0  0  0
  4 15  1  0  0  0
  4 38  1  0  0  0
  5 10  1  0  0  0
  6  5  2  0  0  0
  6  7  1  0  0  0
  7  8  2  0  0  0
  7 39  1  0  0  0
  8  9  1  0  0  0
  8 40  1  0  0  0
  9 41  1  0  0  0
 10 11  1  0  0  0
 10  9  2  0  0  0
 11 27  2  0  0  0
 12  3  1  0  0  0
 12 42  1  0  0  0
 13  1  2  0  0  0
 13 43  1  0  0  0
 14 12  2  0  0  0
 14 13  1  0  0  0
 14 44  1  0  0  0
 15 45  1  0  0  0
 16 36  1  0  0  0
 16 17  2  0  0  0
 17 46  1  0  0  0
 18 17  1  0  0  0
 19 16  1  0  0  0
 20 19  2  0  0  0
 20 21  1  0  0  0
 21 18  2  0  0  0
 22 21  1  0  0  0
 22 47  1  0  0  0
 23 22  1  0  0  0
 23 48  1  0  0  0
 24 23  2  0  0  0
 24 20  1  0  0  0
 25 15  1  0  0  0
 25 19  1  0  0  0
 26 25  2  0  0  0
 27 31  1  0  0  0
 27 49  1  0  0  0
 28 29  2  0  0  0
 28 30  1  0  0  0
 29 11  1  0  0  0
 29 50  1  0  0  0
 30 31  1  0  0  0
 31 32  2  0  0  0
 32 51  1  0  0  0
 33 32  1  0  0  0
 33 52  1  0  0  0
 34 33  2  0  0  0
 34 53  1  0  0  0
 35 30  2  0  0  0
 35 34  1  0  0  0
 35 54  1  0  0  0
M  END
