73Z
  CCTOOLS-0919241044

 59 62  0  0  0  0  0  0  0  0999 V2000
   -4.6930   -1.5510    0.1770 C   0  0  0  0  0
   -3.3660   -1.2800   -0.3850 C   0  0  0  0  0
   -2.6150   -0.1770    0.0030 C   0  0  0  0  0
   -1.4320   -1.3020   -1.5100 C   0  0  0  0  0
   -2.5780   -1.9980   -1.3720 C   0  0  0  0  0
   -5.2530    1.2250   -0.1760 C   0  0  0  0  0
   -5.0990    1.6210    2.2830 C   0  0  0  0  0
   -2.9640   -3.2640   -2.0930 C   0  0  0  0  0
   -0.4370    0.7330   -0.5630 C   0  0  0  0  0
   -0.7310    2.0910   -0.6520 C   0  0  0  0  0
   -5.0650   -0.7100    1.3900 C   0  0  0  0  0
   -4.6240    0.7340    1.1300 C   0  0  0  0  0
   -3.0990    0.8240    1.0200 C   0  0  0  0  0
   -1.4620   -0.2110   -0.6800 N   0  0  0  0  0
   -5.4420   -2.3820   -0.2940 O   0  0  0  0  0
    0.2710    3.0270   -0.5390 C   0  0  0  0  0
    1.5910    2.6150   -0.3320 C   0  0  0  0  0
    1.8880    1.2450   -0.2410 C   0  0  0  0  0
    0.8690    0.3120   -0.3630 C   0  0  0  0  0
    2.6660    3.6140   -0.2100 C   0  0  0  0  0
    3.1970    0.8270   -0.0410 N   0  0  0  0  0
    3.5240   -0.6010   -0.0830 C   0  0  0  0  0
    4.9970   -0.7740   -0.4580 C   0  0  0  0  0
    5.3170   -2.2660   -0.5930 C   0  0  0  0  0
    4.9140   -2.9610    0.6890 C   0  0  0  0  0
    3.5160   -2.7330    1.2200 C   0  0  0  0  0
    3.2620   -1.2230    1.2890 C   0  0  0  0  0
    5.6880   -3.6810    1.2730 O   0  0  0  0  0
    2.4000    4.9190   -0.4160 N   0  0  0  0  0
    3.7940    3.2620    0.0770 O   0  0  0  0  0
   -0.6180   -1.5630   -2.1700 H   0  0  0  0  0
   -6.3390    1.1840   -0.0940 H   0  0  0  0  0
   -4.9420    2.2530   -0.3640 H   0  0  0  0  0
   -4.9260    0.5890   -0.9980 H   0  0  0  0  0
   -6.1850    1.5690    2.3580 H   0  0  0  0  0
   -4.6530    1.2740    3.2150 H   0  0  0  0  0
   -4.7970    2.6510    2.0960 H   0  0  0  0  0
   -2.6280   -4.1270   -1.5180 H   0  0  0  0  0
   -4.0470   -3.3020   -2.2060 H   0  0  0  0  0
   -2.4950   -3.2780   -3.0770 H   0  0  0  0  0
   -1.7500    2.4110   -0.8130 H   0  0  0  0  0
   -6.1430   -0.7430    1.5430 H   0  0  0  0  0
   -4.5560   -1.0960    2.2730 H   0  0  0  0  0
   -2.6510    0.6050    1.9890 H   0  0  0  0  0
   -2.8160    1.8290    0.7050 H   0  0  0  0  0
    0.0380    4.0790   -0.6090 H   0  0  0  0  0
    1.0920   -0.7430   -0.2940 H   0  0  0  0  0
    3.8950    1.4800    0.1260 H   0  0  0  0  0
    2.9010   -1.0940   -0.8290 H   0  0  0  0  0
    5.1920   -0.2730   -1.4070 H   0  0  0  0  0
    5.6240   -0.3360    0.3190 H   0  0  0  0  0
    4.7570   -2.6860   -1.4290 H   0  0  0  0  0
    6.3850   -2.3980   -0.7640 H   0  0  0  0  0
    2.7900   -3.1960    0.5520 H   0  0  0  0  0
    3.4280   -3.1650    2.2170 H   0  0  0  0  0
    3.9300   -0.7750    2.0250 H   0  0  0  0  0
    2.2270   -1.0410    1.5790 H   0  0  0  0  0
    1.5000    5.2010   -0.6450 H   0  0  0  0  0
    3.1080    5.5770   -0.3360 H   0  0  0  0  0
  1 11  1  0  0  0
  2  3  2  0  0  0
  2  1  1  0  0  0
  3 13  1  0  0  0
  4  5  2  0  0  0
  4 14  1  0  0  0
  4 31  1  0  0  0
  5  2  1  0  0  0
  6 12  1  0  0  0
  6 32  1  0  0  0
  6 33  1  0  0  0
  6 34  1  0  0  0
  7 35  1  0  0  0
  7 36  1  0  0  0
  7 37  1  0  0  0
  8  5  1  0  0  0
  8 38  1  0  0  0
  8 39  1  0  0  0
  8 40  1  0  0  0
  9 14  1  0  0  0
  9 10  2  0  0  0
 10 41  1  0  0  0
 11 12  1  0  0  0
 11 42  1  0  0  0
 11 43  1  0  0  0
 12  7  1  0  0  0
 13 12  1  0  0  0
 13 44  1  0  0  0
 13 45  1  0  0  0
 14  3  1  0  0  0
 15  1  2  0  0  0
 16 10  1  0  0  0
 16 46  1  0  0  0
 17 16  2  0  0  0
 18 19  2  0  0  0
 18 17  1  0  0  0
 19  9  1  0  0  0
 19 47  1  0  0  0
 20 17  1  0  0  0
 20 29  1  0  0  0
 21 18  1  0  0  0
 21 48  1  0  0  0
 22 23  1  0  0  0
 22 21  1  0  0  0
 22 49  1  0  0  0
 23 50  1  0  0  0
 23 51  1  0  0  0
 24 23  1  0  0  0
 24 52  1  0  0  0
 24 53  1  0  0  0
 25 24  1  0  0  0
 26 25  1  0  0  0
 26 27  1  0  0  0
 26 54  1  0  0  0
 26 55  1  0  0  0
 27 22  1  0  0  0
 27 56  1  0  0  0
 27 57  1  0  0  0
 28 25  2  0  0  0
 29 58  1  0  0  0
 29 59  1  0  0  0
 30 20  2  0  0  0
M  END
