9EK
  CCTOOLS-0919241037

 60 64  0  0  0  0  0  0  0  0999 V2000
    0.4750   -1.3370    0.2190 C   0  0  0  0  0
   -1.3660   -3.0120    0.0610 C   0  0  0  0  0
   -3.6680   -2.3540   -0.0580 C   0  0  0  0  0
   -3.2510   -0.9450    0.0080 C   0  0  0  0  0
   -4.4520   -0.2220   -0.0440 C   0  0  0  0  0
   -4.6030    1.2360   -0.0110 C   0  0  0  0  0
   -7.1040    1.0480   -0.0270 C   0  0  0  0  0
   -6.1270    3.2220    0.1830 C   0  0  0  0  0
    2.3370    0.0180   -0.3860 C   0  0  0  0  0
    3.2180   -0.9440    0.0880 C   0  0  0  0  0
    4.1790    1.4810   -0.8530 C   0  0  0  0  0
    0.0430    0.7060   -1.0380 C   0  0  0  0  0
    8.2500    2.2670    0.3060 C   0  0  0  0  0
    8.6820   -0.0800    0.0960 C   0  0  0  0  0
    7.1810   -0.3750    0.1660 C   0  0  0  0  0
    0.9590   -0.2330   -0.3840 N   0  0  0  0  0
    1.2220   -2.0630    0.8450 O   0  0  0  0  0
   -0.9610   -1.6610    0.1240 C   0  0  0  0  0
   -1.8910   -0.6350    0.0980 C   0  0  0  0  0
   -2.6790   -3.3580   -0.0280 C   0  0  0  0  0
   -0.4230   -3.9880    0.0830 O   0  0  0  0  0
   -5.4470   -1.1430   -0.1310 N   0  0  0  0  0
   -4.9880   -2.3430   -0.1370 N   0  0  0  0  0
   -5.8330    1.7840    0.0430 N   0  0  0  0  0
   -8.2410    2.0830    0.1020 C   0  0  0  0  0
   -7.5450    3.2790    0.8050 C   0  0  0  0  0
   -3.6190    1.9500   -0.0330 O   0  0  0  0  0
    5.0600    0.5190   -0.3790 C   0  0  0  0  0
    4.5760   -0.6950    0.0920 C   0  0  0  0  0
    2.8210    1.2320   -0.8570 C   0  0  0  0  0
    6.4360    0.7710   -0.3750 N   0  0  0  0  0
    6.7450    1.9960    0.3780 C   0  0  0  0  0
    8.9580    1.1300    0.8070 O   0  0  0  0  0
   -7.1800    0.5310   -0.9840 H   0  0  0  0  0
   -7.1610    0.3280    0.7890 H   0  0  0  0  0
   -5.4030    3.6950    0.8460 H   0  0  0  0  0
   -6.1200    3.7080   -0.7930 H   0  0  0  0  0
    2.8410   -1.8880    0.4540 H   0  0  0  0  0
    4.5550    2.4250   -1.2200 H   0  0  0  0  0
   -0.2030    1.5130   -0.3490 H   0  0  0  0  0
    0.5190    1.1180   -1.9270 H   0  0  0  0  0
   -0.8700    0.1820   -1.3240 H   0  0  0  0  0
    8.5380    2.4480   -0.7290 H   0  0  0  0  0
    8.4920    3.1410    0.9100 H   0  0  0  0  0
    9.2360   -0.9030    0.5480 H   0  0  0  0  0
    8.9830    0.0330   -0.9450 H   0  0  0  0  0
    6.9570   -1.2650   -0.4230 H   0  0  0  0  0
    6.8910   -0.5420    1.2030 H   0  0  0  0  0
   -1.5690    0.3950    0.1470 H   0  0  0  0  0
   -2.9620   -4.3990   -0.0750 H   0  0  0  0  0
   -0.0990   -4.2420   -0.7910 H   0  0  0  0  0
   -6.3910   -0.9220   -0.1810 H   0  0  0  0  0
   -8.6100    2.3760   -0.8810 H   0  0  0  0  0
   -9.0520    1.6910    0.7160 H   0  0  0  0  0
   -7.5040    3.1280    1.8840 H   0  0  0  0  0
   -8.0410    4.2180    0.5620 H   0  0  0  0  0
    5.2610   -1.4440    0.4610 H   0  0  0  0  0
    2.1350    1.9800   -1.2250 H   0  0  0  0  0
    6.4480    1.8670    1.4190 H   0  0  0  0  0
    6.2030    2.8360   -0.0550 H   0  0  0  0  0
  1 18  1  0  0  0
  2 20  2  0  0  0
  3 23  2  0  0  0
  4  3  1  0  0  0
  4  5  2  0  0  0
  5 22  1  0  0  0
  6  5  1  0  0  0
  6 27  2  0  0  0
  7 24  1  0  0  0
  7 34  1  0  0  0
  7 35  1  0  0  0
  8 24  1  0  0  0
  8 36  1  0  0  0
  8 37  1  0  0  0
  9 30  1  0  0  0
 10  9  2  0  0  0
 10 29  1  0  0  0
 10 38  1  0  0  0
 11 39  1  0  0  0
 12 16  1  0  0  0
 12 40  1  0  0  0
 12 41  1  0  0  0
 12 42  1  0  0  0
 13 33  1  0  0  0
 13 43  1  0  0  0
 13 44  1  0  0  0
 14 45  1  0  0  0
 14 46  1  0  0  0
 15 14  1  0  0  0
 15 47  1  0  0  0
 15 48  1  0  0  0
 16  1  1  0  0  0
 16  9  1  0  0  0
 17  1  2  0  0  0
 18 19  2  0  0  0
 18  2  1  0  0  0
 19  4  1  0  0  0
 19 49  1  0  0  0
 20  3  1  0  0  0
 20 50  1  0  0  0
 21  2  1  0  0  0
 21 51  1  0  0  0
 22 52  1  0  0  0
 23 22  1  0  0  0
 24  6  1  0  0  0
 25  7  1  0  0  0
 25 53  1  0  0  0
 25 54  1  0  0  0
 26 25  1  0  0  0
 26  8  1  0  0  0
 26 55  1  0  0  0
 26 56  1  0  0  0
 28 11  1  0  0  0
 28 31  1  0  0  0
 29 28  2  0  0  0
 29 57  1  0  0  0
 30 11  2  0  0  0
 30 58  1  0  0  0
 31 15  1  0  0  0
 32 31  1  0  0  0
 32 13  1  0  0  0
 32 59  1  0  0  0
 32 60  1  0  0  0
 33 14  1  0  0  0
M  END
