9R8
  CCTOOLS-0919241039

 62 66  0  0  0  0  0  0  0  0999 V2000
    1.1220    2.0440    0.0640 C   0  0  0  0  0
    1.5530    3.1920   -0.6300 C   0  0  0  0  0
    2.8980    3.4490   -0.7830 C   0  0  0  0  0
    0.6390    4.0490   -1.1500 O   0  0  0  0  0
    3.4150    1.4210    0.4460 C   0  0  0  0  0
    3.8410    2.5720   -0.2500 C   0  0  0  0  0
    4.6290    0.7260    0.8690 C   0  0  0  0  0
    4.6900   -0.5620    1.6480 C   0  0  0  0  0
    4.7130   -1.7270    0.6920 C   0  0  0  0  0
    3.5270   -2.3000    0.2730 C   0  0  0  0  0
    4.7550   -3.8640   -1.0610 C   0  0  0  0  0
    5.9200   -2.2190    0.2310 C   0  0  0  0  0
    7.2570   -3.8300   -1.1400 C   0  0  0  0  0
   -4.4090    1.0680    0.1020 C   0  0  0  0  0
   -3.0500    1.3130    0.0890 C   0  0  0  0  0
   -2.6250   -1.0290    0.4350 C   0  0  0  0  0
   -6.2570   -0.4720    0.3060 N   0  0  0  0  0
   -6.8950    0.0070   -0.9290 C   0  0  0  0  0
   -8.4050   -0.2290   -0.8410 C   0  0  0  0  0
   -8.0470   -2.1180    0.5870 C   0  0  0  0  0
   -6.5330   -1.9010    0.5140 C   0  0  0  0  0
    2.0530    1.1620    0.5990 C   0  0  0  0  0
   -0.3200    1.7810    0.2270 C   0  0  0  0  0
   -1.0970    2.7080    0.3490 O   0  0  0  0  0
    5.2100    2.5550   -0.2370 N   0  0  0  0  0
    5.6490    1.4200    0.4510 N   0  0  0  0  0
    5.9410   -3.2870   -0.6460 C   0  0  0  0  0
    3.5480   -3.3650   -0.6080 C   0  0  0  0  0
   -2.1550    0.2650    0.2550 C   0  0  0  0  0
   -4.8800   -0.2250    0.2870 C   0  0  0  0  0
   -3.9840   -1.2730    0.4540 C   0  0  0  0  0
   -0.7760    0.5130    0.2410 N   0  0  0  0  0
    0.1700   -0.6060    0.2420 C   0  0  0  0  0
   -8.6530   -1.6180   -0.6080 O   0  0  0  0  0
    3.2220    4.3300   -1.3160 H   0  0  0  0  0
    0.3730    4.7550   -0.5450 H   0  0  0  0  0
    5.5930   -0.5750    2.2590 H   0  0  0  0  0
    3.8150   -0.6380    2.2930 H   0  0  0  0  0
    2.5850   -1.9160    0.6340 H   0  0  0  0  0
    4.7710   -4.7040   -1.7400 H   0  0  0  0  0
    6.8460   -1.7680    0.5550 H   0  0  0  0  0
    7.5400   -3.3160   -2.0590 H   0  0  0  0  0
    8.0240   -3.6700   -0.3830 H   0  0  0  0  0
    7.1580   -4.8980   -1.3370 H   0  0  0  0  0
   -5.1060    1.8830   -0.0280 H   0  0  0  0  0
   -2.6840    2.3190   -0.0510 H   0  0  0  0  0
   -1.9280   -1.8440    0.5640 H   0  0  0  0  0
   -6.6990    1.0720   -1.0500 H   0  0  0  0  0
   -6.4910   -0.5370   -1.7820 H   0  0  0  0  0
   -8.8180    0.3580   -0.0200 H   0  0  0  0  0
   -8.8760    0.0730   -1.7770 H   0  0  0  0  0
   -8.2580   -3.1830    0.6840 H   0  0  0  0  0
   -8.4500   -1.5870    1.4500 H   0  0  0  0  0
   -6.1230   -2.4760   -0.3170 H   0  0  0  0  0
   -6.0730   -2.2290    1.4460 H   0  0  0  0  0
    1.7240    0.2820    1.1320 H   0  0  0  0  0
    5.7840    3.2240   -0.6420 H   0  0  0  0  0
    2.6220   -3.8160   -0.9320 H   0  0  0  0  0
   -4.3500   -2.2800    0.5930 H   0  0  0  0  0
    0.3330   -0.9430    1.2660 H   0  0  0  0  0
   -0.2370   -1.4260   -0.3500 H   0  0  0  0  0
    1.1170   -0.2810   -0.1890 H   0  0  0  0  0
  1 22  2  0  0  0
  1  2  1  0  0  0
  2  3  2  0  0  0
  3  6  1  0  0  0
  3 35  1  0  0  0
  4  2  1  0  0  0
  4 36  1  0  0  0
  5  6  2  0  0  0
  5  7  1  0  0  0
  6 25  1  0  0  0
  7 26  2  0  0  0
  8  7  1  0  0  0
  8 37  1  0  0  0
  8 38  1  0  0  0
  9 12  1  0  0  0
  9  8  1  0  0  0
 10  9  2  0  0  0
 10 39  1  0  0  0
 11 27  1  0  0  0
 11 40  1  0  0  0
 12 41  1  0  0  0
 13 42  1  0  0  0
 13 43  1  0  0  0
 13 44  1  0  0  0
 14 45  1  0  0  0
 15 14  2  0  0  0
 15 46  1  0  0  0
 16 29  2  0  0  0
 16 31  1  0  0  0
 16 47  1  0  0  0
 17 21  1  0  0  0
 17 18  1  0  0  0
 18 19  1  0  0  0
 18 48  1  0  0  0
 18 49  1  0  0  0
 19 50  1  0  0  0
 19 51  1  0  0  0
 20 34  1  0  0  0
 20 52  1  0  0  0
 20 53  1  0  0  0
 21 20  1  0  0  0
 21 54  1  0  0  0
 21 55  1  0  0  0
 22  5  1  0  0  0
 22 56  1  0  0  0
 23  1  1  0  0  0
 24 23  2  0  0  0
 25 26  1  0  0  0
 25 57  1  0  0  0
 27 13  1  0  0  0
 27 12  2  0  0  0
 28 11  2  0  0  0
 28 10  1  0  0  0
 28 58  1  0  0  0
 29 15  1  0  0  0
 30 14  1  0  0  0
 30 17  1  0  0  0
 31 30  2  0  0  0
 31 59  1  0  0  0
 32 23  1  0  0  0
 32 29  1  0  0  0
 33 32  1  0  0  0
 33 60  1  0  0  0
 33 61  1  0  0  0
 33 62  1  0  0  0
 34 19  1  0  0  0
M  END
