A1H0T
  CCTOOLS-1122241203

 22 23  0  0  0  0  0  0  0  0999 V2000
    0.9930   -1.2970   -0.0060 N   0  0  0  0  0
   -0.2370   -0.7170   -0.0090 C   0  0  0  0  0
   -1.5380   -1.2270    0.0220 C   0  0  0  0  0
   -1.8010   -2.9420    0.0790 CL  0  0  0  0  0
   -2.6110   -0.3620    0.0080 C   0  0  0  0  0
   -2.4090    1.0100   -0.0370 C   0  0  0  0  0
   -3.7740    2.0820   -0.0540 CL  0  0  0  0  0
   -1.1300    1.5280   -0.0680 C   0  0  0  0  0
   -0.0380    0.6720   -0.0540 C   0  0  0  0  0
    1.3330    0.8650   -0.0770 N   0  0  0  0  0
    1.9160   -0.3700   -0.0460 C   0  0  0  0  0
    3.2790   -0.6050   -0.0540 N   0  0  0  0  0
    4.1610    0.4510    0.0300 C   0  0  0  0  0
    3.7540    1.6440    0.5790 N   0  0  0  0  0
    5.3800    0.3180   -0.4090 N   0  0  0  0  0
   -3.6170   -0.7560    0.0320 H   0  0  0  0  0
   -0.9790    2.5960   -0.1020 H   0  0  0  0  0
    1.7930    1.7180   -0.1090 H   0  0  0  0  0
    3.6140   -1.5130   -0.1200 H   0  0  0  0  0
    2.9610    1.6760    1.1360 H   0  0  0  0  0
    4.2610    2.4540    0.4090 H   0  0  0  0  0
    5.6890   -0.5440   -0.7290 H   0  0  0  0  0
  1  2  1  0  0  0
  1 11  2  0  0  0
  2  9  1  0  0  0
  3  2  2  0  0  0
  3  5  1  0  0  0
  4  3  1  0  0  0
  5  6  2  0  0  0
  5 16  1  0  0  0
  6  8  1  0  0  0
  6  7  1  0  0  0
  8 17  1  0  0  0
  9 10  1  0  0  0
  9  8  2  0  0  0
 10 18  1  0  0  0
 11 12  1  0  0  0
 11 10  1  0  0  0
 12 19  1  0  0  0
 13 14  1  0  0  0
 13 12  1  0  0  0
 14 20  1  0  0  0
 14 21  1  0  0  0
 15 13  2  0  0  0
 15 22  1  0  0  0
M  END
