9RZ
  CCTOOLS-0919241039

 67 71  0  0  1  0  0  0  0  0999 V2000
    1.2350   -1.7180    0.3310 C   0  0  0  0  0
   -0.4760   -3.5340    0.2620 C   0  0  0  0  0
   -2.8010   -3.0330   -0.0550 C   0  0  0  0  0
   -2.4910   -1.6580   -0.1200 C   0  0  0  0  0
   -3.7900   -1.0020   -0.3260 C   0  0  0  0  0
   -4.0380    0.4450   -0.4640 C   0  0  0  0  0
   -6.4380   -0.0200   -0.5820 C   0  0  0  0  0
   -6.5620    2.6950    0.5500 C   0  0  0  0  0
   -7.8100    1.8220    0.3990 C   0  0  0  0  0
   -7.4230    0.3480    0.5320 C   0  0  0  0  0
    3.0240   -0.2870   -0.3160 C   0  0  0  0  0
    5.2770   -0.7670    0.3500 C   0  0  0  0  0
    0.7280    0.1450   -1.1550 C   0  0  0  0  0
    7.2780    2.0640   -0.8670 C   0  0  0  0  0
    8.7760    2.3820   -0.8610 C   0  0  0  0  0
    9.0500    1.1400    1.1690 C   0  0  0  0  0
    1.6700   -0.6450   -0.3590 N   0  0  0  0  0
    1.9950   -2.3150    1.0690 O   0  0  0  0  0
   -0.1640   -2.1630    0.1960 C   0  0  0  0  0
   -1.1780   -1.2270    0.0050 C   0  0  0  0  0
   -1.7820   -3.9610    0.1370 C   0  0  0  0  0
    0.5150   -4.4430    0.4430 O   0  0  0  0  0
   -4.6880   -1.9620   -0.3620 N   0  0  0  0  0
   -4.1590   -3.1220   -0.2120 N   0  0  0  0  0
   -3.1020    1.2200   -0.5160 O   0  0  0  0  0
   -5.3010    0.9090   -0.5340 N   0  0  0  0  0
   -5.5670    2.3540   -0.5640 C   0  0  0  0  0
   -6.9290    4.0730    0.4570 O   0  0  0  0  0
   -6.0880    4.9500    1.2090 C   0  0  0  0  0
    3.4440    0.9080   -0.8860 C   0  0  0  0  0
    5.6990    0.4220   -0.2310 C   0  0  0  0  0
    4.7780    1.2610   -0.8440 C   0  0  0  0  0
    3.9440   -1.1230    0.3020 C   0  0  0  0  0
    7.0530    0.7750   -0.1980 N   0  0  0  0  0
    9.2520    2.3810    0.4880 O   0  0  0  0  0
    7.5550    0.8090    1.1830 C   0  0  0  0  0
   -6.0830   -1.0400   -0.4340 H   0  0  0  0  0
   -6.9350    0.0600   -1.5490 H   0  0  0  0  0
   -6.1010    2.5060    1.5200 H   0  0  0  0  0
   -8.5300    2.0800    1.1760 H   0  0  0  0  0
   -8.2570    1.9940   -0.5800 H   0  0  0  0  0
   -8.3160   -0.2720    0.4480 H   0  0  0  0  0
   -6.9540    0.1810    1.5020 H   0  0  0  0  0
    5.9940   -1.4200    0.8260 H   0  0  0  0  0
    0.3830    0.9980   -0.5690 H   0  0  0  0  0
    1.2240    0.5020   -2.0580 H   0  0  0  0  0
   -0.1250   -0.4750   -1.4310 H   0  0  0  0  0
    6.7370    2.8480   -0.3370 H   0  0  0  0  0
    6.9220    2.0080   -1.8960 H   0  0  0  0  0
    9.3100    1.6260   -1.4360 H   0  0  0  0  0
    8.9410    3.3630   -1.3050 H   0  0  0  0  0
    9.5920    0.3480    0.6520 H   0  0  0  0  0
    9.4150    1.2230    2.1930 H   0  0  0  0  0
   -0.9430   -0.1740   -0.0460 H   0  0  0  0  0
   -2.0130   -5.0150    0.1880 H   0  0  0  0  0
    0.9060   -4.7680   -0.3800 H   0  0  0  0  0
   -4.6570   -3.9540   -0.2090 H   0  0  0  0  0
   -5.9930    2.6270   -1.5300 H   0  0  0  0  0
   -4.6380    2.9000   -0.4040 H   0  0  0  0  0
   -6.4320    5.9770    1.0860 H   0  0  0  0  0
   -6.1280    4.6770    2.2630 H   0  0  0  0  0
   -5.0620    4.8660    0.8500 H   0  0  0  0  0
    2.7270    1.5610   -1.3620 H   0  0  0  0  0
    5.1050    2.1900   -1.2880 H   0  0  0  0  0
    3.6170   -2.0520    0.7450 H   0  0  0  0  0
    7.4010   -0.1630    1.6510 H   0  0  0  0  0
    7.0190    1.5740    1.7460 H   0  0  0  0  0
  1 19  1  0  0  0
  2 21  2  0  0  0
  3 24  1  0  0  0
  4  3  2  0  0  0
  4  5  1  0  0  0
  5 23  2  0  0  0
  6  5  1  0  0  0
  6 25  2  0  0  0
  7 10  1  0  0  0
  7 26  1  0  0  0
  7 37  1  0  0  0
  7 38  1  0  0  0
  8 39  1  0  0  0
  9  8  1  0  0  0
  9 10  1  0  0  0
  9 40  1  0  0  0
  9 41  1  0  0  0
 10 42  1  0  0  0
 10 43  1  0  0  0
 11 30  1  0  0  0
 12 31  2  0  0  0
 12 44  1  0  0  0
 13 17  1  0  0  0
 13 45  1  0  0  0
 13 46  1  0  0  0
 13 47  1  0  0  0
 14 15  1  0  0  0
 14 48  1  0  0  0
 14 49  1  0  0  0
 15 50  1  0  0  0
 15 51  1  0  0  0
 16 35  1  0  0  0
 16 52  1  0  0  0
 16 53  1  0  0  0
 17  1  1  0  0  0
 17 11  1  0  0  0
 18  1  2  0  0  0
 19 20  2  0  0  0
 19  2  1  0  0  0
 20  4  1  0  0  0
 20 54  1  0  0  0
 21  3  1  0  0  0
 21 55  1  0  0  0
 22  2  1  0  0  0
 22 56  1  0  0  0
 24 23  1  0  0  0
 24 57  1  0  0  0
 26  6  1  0  0  0
 27  8  1  0  0  0
 27 26  1  0  0  0
 27 58  1  0  0  0
 27 59  1  0  0  0
 28  8  1  0  0  0
 29 28  1  0  0  0
 29 60  1  0  0  0
 29 61  1  0  0  0
 29 62  1  0  0  0
 30 32  2  0  0  0
 30 63  1  0  0  0
 31 32  1  0  0  0
 31 34  1  0  0  0
 32 64  1  0  0  0
 33 11  2  0  0  0
 33 12  1  0  0  0
 33 65  1  0  0  0
 34 14  1  0  0  0
 35 15  1  0  0  0
 36 34  1  0  0  0
 36 16  1  0  0  0
 36 66  1  0  0  0
 36 67  1  0  0  0
M  END
