74E
  CCTOOLS-0919241044

 61 64  0  0  0  0  0  0  0  0999 V2000
    5.0740    0.7920    1.3840 C   0  0  0  0  0
    2.6360    0.1990   -0.0000 C   0  0  0  0  0
    3.3620    1.3180   -0.3910 C   0  0  0  0  0
    2.5560    2.0160   -1.3780 C   0  0  0  0  0
    1.4260    1.2940   -1.5140 C   0  0  0  0  0
    5.1630   -1.5350    2.2820 C   0  0  0  0  0
    5.3060   -1.1420   -0.1780 C   0  0  0  0  0
    0.4790   -0.7620   -0.5610 C   0  0  0  0  0
    0.8050   -2.1130   -0.6490 C   0  0  0  0  0
   -0.1750   -3.0710   -0.5330 C   0  0  0  0  0
    4.6820    1.6220    0.1690 C   0  0  0  0  0
    3.1450   -0.7880    1.0190 C   0  0  0  0  0
    4.6670   -0.6620    1.1270 C   0  0  0  0  0
    1.4820    0.2050   -0.6810 N   0  0  0  0  0
    5.4090    2.4720   -0.3010 O   0  0  0  0  0
   -1.5050   -2.6900   -0.3260 C   0  0  0  0  0
   -1.8330   -1.3270   -0.2370 C   0  0  0  0  0
   -0.8360   -0.3710   -0.3610 C   0  0  0  0  0
   -2.5560   -3.7140   -0.2010 C   0  0  0  0  0
   -2.2600   -5.0120   -0.4060 N   0  0  0  0  0
   -3.1510   -0.9380   -0.0370 N   0  0  0  0  0
   -3.5110    0.4810   -0.0810 C   0  0  0  0  0
   -4.9880    0.6210   -0.4550 C   0  0  0  0  0
   -5.3650    2.1030   -0.5010 C   0  0  0  0  0
   -5.1240    2.7330    0.8720 C   0  0  0  0  0
   -3.6480    2.5930    1.2460 C   0  0  0  0  0
   -3.2710    1.1110    1.2920 C   0  0  0  0  0
   -5.4760    4.1180    0.8290 O   0  0  0  0  0
    2.9110    3.2890   -2.1020 C   0  0  0  0  0
   -3.6920   -3.3870    0.0860 O   0  0  0  0  0
    6.1520    0.8500    1.5360 H   0  0  0  0  0
    4.5580    1.1670    2.2670 H   0  0  0  0  0
    0.6050    1.5350   -2.1730 H   0  0  0  0  0
    4.7180   -1.1900    3.2150 H   0  0  0  0  0
    4.8750   -2.5720    2.1030 H   0  0  0  0  0
    6.2490   -1.4660    2.3490 H   0  0  0  0  0
    6.3910   -1.0750   -0.0970 H   0  0  0  0  0
    5.0190   -2.1770   -0.3640 H   0  0  0  0  0
    4.9640   -0.5160   -1.0020 H   0  0  0  0  0
    1.8310   -2.4100   -0.8090 H   0  0  0  0  0
    0.0820   -4.1180   -0.6020 H   0  0  0  0  0
    2.6920   -0.5770    1.9880 H   0  0  0  0  0
    2.8840   -1.7990    0.7070 H   0  0  0  0  0
   -1.0830    0.6790   -0.2930 H   0  0  0  0  0
   -1.3540   -5.2730   -0.6350 H   0  0  0  0  0
   -2.9530   -5.6860   -0.3240 H   0  0  0  0  0
   -3.8330   -1.6070    0.1320 H   0  0  0  0  0
   -2.8980    0.9880   -0.8260 H   0  0  0  0  0
   -5.1590    0.1720   -1.4340 H   0  0  0  0  0
   -5.6010    0.1130    0.2900 H   0  0  0  0  0
   -4.7510    2.6100   -1.2460 H   0  0  0  0  0
   -6.4170    2.2030   -0.7680 H   0  0  0  0  0
   -5.7380    2.2260    1.6170 H   0  0  0  0  0
   -3.0340    3.1010    0.5010 H   0  0  0  0  0
   -3.4770    3.0420    2.2240 H   0  0  0  0  0
   -3.8840    0.6040    2.0370 H   0  0  0  0  0
   -2.2190    1.0110    1.5590 H   0  0  0  0  0
   -5.3490    4.5820    1.6670 H   0  0  0  0  0
    3.4380    3.0470   -3.0250 H   0  0  0  0  0
    2.0000    3.8400   -2.3370 H   0  0  0  0  0
    3.5520    3.9020   -1.4680 H   0  0  0  0  0
  1 13  1  0  0  0
  1 31  1  0  0  0
  1 32  1  0  0  0
  2 12  1  0  0  0
  3  2  2  0  0  0
  3 11  1  0  0  0
  4  3  1  0  0  0
  5  4  2  0  0  0
  5 14  1  0  0  0
  5 33  1  0  0  0
  6 34  1  0  0  0
  6 35  1  0  0  0
  6 36  1  0  0  0
  7 13  1  0  0  0
  7 37  1  0  0  0
  7 38  1  0  0  0
  7 39  1  0  0  0
  8 14  1  0  0  0
  8  9  2  0  0  0
  9 40  1  0  0  0
 10  9  1  0  0  0
 10 41  1  0  0  0
 11  1  1  0  0  0
 12 13  1  0  0  0
 12 42  1  0  0  0
 12 43  1  0  0  0
 13  6  1  0  0  0
 14  2  1  0  0  0
 15 11  2  0  0  0
 16 19  1  0  0  0
 16 10  2  0  0  0
 17 18  2  0  0  0
 17 16  1  0  0  0
 18  8  1  0  0  0
 18 44  1  0  0  0
 19 20  1  0  0  0
 20 45  1  0  0  0
 20 46  1  0  0  0
 21 17  1  0  0  0
 21 47  1  0  0  0
 22 23  1  0  0  0
 22 21  1  0  0  0
 22 48  1  0  0  0
 23 49  1  0  0  0
 23 50  1  0  0  0
 24 23  1  0  0  0
 24 51  1  0  0  0
 24 52  1  0  0  0
 25 24  1  0  0  0
 25 53  1  0  0  0
 26 25  1  0  0  0
 26 27  1  0  0  0
 26 54  1  0  0  0
 26 55  1  0  0  0
 27 22  1  0  0  0
 27 56  1  0  0  0
 27 57  1  0  0  0
 28 25  1  0  0  0
 28 58  1  0  0  0
 29  4  1  0  0  0
 29 59  1  0  0  0
 29 60  1  0  0  0
 29 61  1  0  0  0
 30 19  2  0  0  0
M  END
