B5Q
  CCTOOLS-0919241031

 54 58  0  0  0  0  0  0  0  0999 V2000
    0.6050   -1.0470    0.5020 C   0  0  0  0  0
   -1.3490    0.5380    0.3250 C   0  0  0  0  0
   -0.6150    1.5000    0.4360 O   0  0  0  0  0
    1.5150    0.0140    0.5190 C   0  0  0  0  0
    2.4600   -2.6240    0.6720 C   0  0  0  0  0
    2.8690   -0.2550    0.6110 C   0  0  0  0  0
    3.3300   -1.5800    0.6870 C   0  0  0  0  0
   -1.1010   -3.1270    0.4730 C   0  0  0  0  0
    3.8420    0.8640    0.6290 C   0  0  0  0  0
   -3.3710    2.0010    0.0190 C   0  0  0  0  0
   -4.8330    1.7100   -0.2010 C   0  0  0  0  0
   -5.9170    2.5560   -0.3640 C   0  0  0  0  0
   -7.1820    2.0330   -0.5540 C   0  0  0  0  0
   -7.3650    0.6640   -0.5840 C   0  0  0  0  0
    3.7490    1.8560    1.6040 C   0  0  0  0  0
    5.7560    1.9710   -0.3060 C   0  0  0  0  0
    4.1060   -0.8630   -3.5280 C   0  0  0  0  0
   -2.6700    0.7180    0.1250 N   0  0  0  0  0
   -0.7920   -0.8350    0.4090 C   0  0  0  0  0
    1.0790   -2.3840    0.5740 C   0  0  0  0  0
   -1.5880   -1.8930    0.3980 N   0  0  0  0  0
    0.1910   -3.3820    0.5550 N   0  0  0  0  0
   -1.9860   -4.1900    0.4570 N   0  0  0  0  0
   -3.6810   -0.3330   -0.0280 C   0  0  0  0  0
   -5.0170    0.3420   -0.2300 C   0  0  0  0  0
   -6.2840   -0.1810   -0.4210 C   0  0  0  0  0
    4.6570    2.8950    1.6160 C   0  0  0  0  0
    5.6590    2.9530    0.6640 C   0  0  0  0  0
    4.8570    0.9240   -0.3240 C   0  0  0  0  0
    4.9650   -0.1450   -1.3810 C   0  0  0  0  0
    3.9530    0.0890   -2.4200 N   0  0  0  0  0
    1.1640    1.0350    0.4600 H   0  0  0  0  0
    2.8300   -3.6370    0.7270 H   0  0  0  0  0
    4.3900   -1.7710    0.7590 H   0  0  0  0  0
   -2.9760    2.5700   -0.8230 H   0  0  0  0  0
   -3.2420    2.5700    0.9410 H   0  0  0  0  0
   -5.7740    3.6260   -0.3420 H   0  0  0  0  0
   -8.0260    2.6950   -0.6800 H   0  0  0  0  0
   -8.3540    0.2540   -0.7320 H   0  0  0  0  0
    2.9670    1.8120    2.3470 H   0  0  0  0  0
    6.5430    2.0180   -1.0440 H   0  0  0  0  0
    3.9910   -1.8800   -3.1510 H   0  0  0  0  0
    3.3440   -0.6670   -4.2830 H   0  0  0  0  0
    5.0950   -0.7490   -3.9710 H   0  0  0  0  0
   -2.9400   -4.0260    0.3930 H   0  0  0  0  0
   -1.6530   -5.1000    0.5100 H   0  0  0  0  0
   -3.4440   -0.9500   -0.8950 H   0  0  0  0  0
   -3.7110   -0.9510    0.8690 H   0  0  0  0  0
   -6.4280   -1.2510   -0.4430 H   0  0  0  0  0
    4.5860    3.6650    2.3700 H   0  0  0  0  0
    6.3680    3.7680    0.6770 H   0  0  0  0  0
    5.9580   -0.1160   -1.8280 H   0  0  0  0  0
    4.8000   -1.1220   -0.9270 H   0  0  0  0  0
    3.0220    0.0480   -2.0330 H   0  0  0  0  0
  1 19  1  0  0  0
  2  3  2  0  0  0
  4  1  2  0  0  0
  4 32  1  0  0  0
  5 20  2  0  0  0
  5 33  1  0  0  0
  6  4  1  0  0  0
  7  6  2  0  0  0
  7  5  1  0  0  0
  7 34  1  0  0  0
  8 21  1  0  0  0
  8 23  1  0  0  0
  9  6  1  0  0  0
 10 35  1  0  0  0
 10 36  1  0  0  0
 11 12  1  0  0  0
 11 10  1  0  0  0
 12 37  1  0  0  0
 13 12  2  0  0  0
 13 38  1  0  0  0
 14 13  1  0  0  0
 14 39  1  0  0  0
 15  9  2  0  0  0
 15 40  1  0  0  0
 16 29  2  0  0  0
 16 41  1  0  0  0
 17 42  1  0  0  0
 17 43  1  0  0  0
 17 44  1  0  0  0
 18  2  1  0  0  0
 18 10  1  0  0  0
 19 21  2  0  0  0
 19  2  1  0  0  0
 20  1  1  0  0  0
 20 22  1  0  0  0
 22  8  2  0  0  0
 23 45  1  0  0  0
 23 46  1  0  0  0
 24 18  1  0  0  0
 24 47  1  0  0  0
 24 48  1  0  0  0
 25 24  1  0  0  0
 25 11  2  0  0  0
 26 14  2  0  0  0
 26 25  1  0  0  0
 26 49  1  0  0  0
 27 15  1  0  0  0
 27 50  1  0  0  0
 28 27  2  0  0  0
 28 16  1  0  0  0
 28 51  1  0  0  0
 29  9  1  0  0  0
 29 30  1  0  0  0
 30 31  1  0  0  0
 30 52  1  0  0  0
 30 53  1  0  0  0
 31 17  1  0  0  0
 31 54  1  0  0  0
M  END
