P4A
  CCTOOLS-0919241030

 38 40  0  0  0  0  0  0  0  0999 V2000
   -0.9830    3.6210   -0.0800 N   0  0  0  0  0
   -1.8930    2.5590   -0.1450 N   0  0  0  0  0
   -1.2160    1.4320   -0.1550 C   0  0  0  0  0
    0.1630    1.7530   -0.0960 C   0  0  0  0  0
    0.2660    3.1110   -0.0510 C   0  0  0  0  0
   -1.7930    0.0670   -0.2160 C   0  0  0  0  0
    1.2900    0.7880   -0.0850 C   0  0  0  0  0
    1.5460    3.9030    0.0180 C   0  0  0  0  0
    2.1680    0.7260   -1.1650 C   0  0  0  0  0
    3.2140   -0.1720   -1.1520 C   0  0  0  0  0
    3.3920   -1.0160   -0.0640 C   0  0  0  0  0
    2.5200   -0.9570    1.0130 C   0  0  0  0  0
    1.4750   -0.0560    1.0090 C   0  0  0  0  0
   -2.8540   -0.2840    0.6240 C   0  0  0  0  0
   -3.3890   -1.5600    0.5620 C   0  0  0  0  0
   -2.8720   -2.4850   -0.3320 C   0  0  0  0  0
   -1.8180   -2.1370   -1.1670 C   0  0  0  0  0
   -1.2830   -0.8670   -1.1160 C   0  0  0  0  0
   -3.3980   -3.7370   -0.3910 O   0  0  0  0  0
   -3.3590    0.6240    1.5000 O   0  0  0  0  0
    4.4240   -1.9010   -0.0540 O   0  0  0  0  0
    4.5490   -2.7390    1.0970 C   0  0  0  0  0
   -1.2120    4.5640   -0.0630 H   0  0  0  0  0
    1.8190    4.0630    1.0610 H   0  0  0  0  0
    2.3410    3.3530   -0.4850 H   0  0  0  0  0
    1.4050    4.8660   -0.4720 H   0  0  0  0  0
    2.0290    1.3820   -2.0130 H   0  0  0  0  0
    3.8950   -0.2200   -1.9890 H   0  0  0  0  0
    2.6610   -1.6150    1.8580 H   0  0  0  0  0
    0.7990   -0.0080    1.8500 H   0  0  0  0  0
   -4.2080   -1.8340    1.2090 H   0  0  0  0  0
   -1.4180   -2.8620   -1.8610 H   0  0  0  0  0
   -0.4660   -0.5980   -1.7690 H   0  0  0  0  0
   -4.1250   -3.8290   -1.0210 H   0  0  0  0  0
   -4.0810    1.1580    1.1400 H   0  0  0  0  0
    4.6860   -2.1190    1.9840 H   0  0  0  0  0
    3.6470   -3.3390    1.2080 H   0  0  0  0  0
    5.4100   -3.3950    0.9760 H   0  0  0  0  0
  1  2  1  0  0  0
  1  5  1  0  0  0
  1 23  1  0  0  0
  2  3  2  0  0  0
  3  4  1  0  0  0
  3  6  1  0  0  0
  4  5  2  0  0  0
  4  7  1  0  0  0
  5  8  1  0  0  0
  6 14  2  0  0  0
  6 18  1  0  0  0
  7  9  2  0  0  0
  7 13  1  0  0  0
  8 24  1  0  0  0
  8 25  1  0  0  0
  8 26  1  0  0  0
  9 10  1  0  0  0
  9 27  1  0  0  0
 10 11  2  0  0  0
 10 28  1  0  0  0
 11 12  1  0  0  0
 11 21  1  0  0  0
 12 13  2  0  0  0
 12 29  1  0  0  0
 13 30  1  0  0  0
 14 15  1  0  0  0
 14 20  1  0  0  0
 15 16  2  0  0  0
 15 31  1  0  0  0
 16 17  1  0  0  0
 16 19  1  0  0  0
 17 18  2  0  0  0
 17 32  1  0  0  0
 18 33  1  0  0  0
 19 34  1  0  0  0
 20 35  1  0  0  0
 21 22  1  0  0  0
 22 36  1  0  0  0
 22 37  1  0  0  0
 22 38  1  0  0  0
M  END
