BAW
  CCTOOLS-0919241032

 40 42  0  0  0  0  0  0  0  0999 V2000
   -3.3100   -0.3060    0.7480 C   0  0  0  0  0
   -2.3260   -0.4530    1.7150 C   0  0  0  0  0
   -1.0880    0.1410    1.5390 C   0  0  0  0  0
   -4.1330    0.5860   -1.4460 C   0  0  0  0  0
   -4.1790   -0.6690   -2.3200 C   0  0  0  0  0
    0.4850    1.5260    0.1870 C   0  0  0  0  0
    2.6880    1.8640   -0.1290 C   0  0  0  0  0
    1.7010    0.8740    0.0250 C   0  0  0  0  0
    1.9180   -0.5920    0.0180 C   0  0  0  0  0
    2.3240   -3.3330    0.0040 C   0  0  0  0  0
    2.3910   -2.6310    1.1950 C   0  0  0  0  0
    2.1890   -1.2660    1.2080 C   0  0  0  0  0
   -0.8330    0.8900    0.3820 C   0  0  0  0  0
   -1.8300    1.0310   -0.5850 C   0  0  0  0  0
   -3.0570    0.4320   -0.4010 C   0  0  0  0  0
   -4.5240   -0.8900    0.9240 O   0  0  0  0  0
   -0.1240   -0.0020    2.4850 O   0  0  0  0  0
    0.7400    2.8640    0.1360 N   0  0  0  0  0
    2.1150    3.0360   -0.0630 N   0  0  0  0  0
    1.8470   -1.3050   -1.1800 C   0  0  0  0  0
    2.0500   -2.6730   -1.1800 C   0  0  0  0  0
    1.5790   -0.6610   -2.3370 F   0  0  0  0  0
    4.1600    1.6150   -0.3320 C   0  0  0  0  0
   -2.5260   -1.0310    2.6050 H   0  0  0  0  0
   -3.9130    1.4540   -2.0680 H   0  0  0  0  0
   -5.0970    0.7250   -0.9570 H   0  0  0  0  0
   -4.3990   -1.5370   -1.6970 H   0  0  0  0  0
   -4.9570   -0.5570   -3.0750 H   0  0  0  0  0
   -3.2150   -0.8080   -2.8080 H   0  0  0  0  0
    2.4830   -4.4010    0.0000 H   0  0  0  0  0
    2.6000   -3.1530    2.1170 H   0  0  0  0  0
    2.2410   -0.7200    2.1380 H   0  0  0  0  0
   -1.6380    1.6070   -1.4780 H   0  0  0  0  0
   -5.1670   -0.3310    1.3830 H   0  0  0  0  0
    0.4470   -0.7710    2.3520 H   0  0  0  0  0
    0.0830    3.5720    0.2220 H   0  0  0  0  0
    1.9960   -3.2260   -2.1050 H   0  0  0  0  0
    4.3720    1.5380   -1.3980 H   0  0  0  0  0
    4.7300    2.4400    0.0940 H   0  0  0  0  0
    4.4420    0.6850    0.1620 H   0  0  0  0  0
  1 16  1  0  0  0
  2  1  1  0  0  0
  2 24  1  0  0  0
  3  2  2  0  0  0
  4 25  1  0  0  0
  4 26  1  0  0  0
  5  4  1  0  0  0
  5 27  1  0  0  0
  5 28  1  0  0  0
  5 29  1  0  0  0
  6 13  1  0  0  0
  7  8  1  0  0  0
  8  6  2  0  0  0
  8  9  1  0  0  0
  9 12  1  0  0  0
 10 11  1  0  0  0
 10 30  1  0  0  0
 11 31  1  0  0  0
 12 11  2  0  0  0
 12 32  1  0  0  0
 13 14  2  0  0  0
 13  3  1  0  0  0
 14 15  1  0  0  0
 14 33  1  0  0  0
 15  4  1  0  0  0
 15  1  2  0  0  0
 16 34  1  0  0  0
 17  3  1  0  0  0
 17 35  1  0  0  0
 18  6  1  0  0  0
 18 36  1  0  0  0
 19  7  2  0  0  0
 19 18  1  0  0  0
 20  9  2  0  0  0
 20 21  1  0  0  0
 21 10  2  0  0  0
 21 37  1  0  0  0
 22 20  1  0  0  0
 23  7  1  0  0  0
 23 38  1  0  0  0
 23 39  1  0  0  0
 23 40  1  0  0  0
M  END
