BA8
  CCTOOLS-0919241032

 46 49  0  0  0  0  0  0  0  0999 V2000
   -1.0860    1.2860   -0.3290 C   0  0  0  0  0
   -1.1790    2.6220   -0.7000 C   0  0  0  0  0
   -0.0740    3.4540   -0.5970 C   0  0  0  0  0
    2.5030    1.0680    0.7510 C   0  0  0  0  0
    3.2980    1.6250    1.7140 C   0  0  0  0  0
    4.4110    0.8000    1.8810 C   0  0  0  0  0
    2.6430   -0.9590   -0.6480 C   0  0  0  0  0
    2.5980   -2.3250   -0.3970 C   0  0  0  0  0
    2.1350   -3.1910   -1.3710 C   0  0  0  0  0
    1.7190   -2.6980   -2.5930 C   0  0  0  0  0
   -2.2910    0.3890   -0.4440 C   0  0  0  0  0
   -5.8480   -1.9550    1.5610 C   0  0  0  0  0
   -6.2250   -1.0040   -0.5960 C   0  0  0  0  0
   -5.1580   -0.2410   -0.4530 N   0  0  0  0  0
   -4.7370   -1.1330    1.6780 C   0  0  0  0  0
    1.1270    2.9550   -0.1240 C   0  0  0  0  0
    1.2220    1.6090    0.2500 C   0  0  0  0  0
    0.1070    0.7780    0.1390 C   0  0  0  0  0
   -2.3570    3.1140   -1.1660 O   0  0  0  0  0
    4.3050   -0.2160    1.0610 N   0  0  0  0  0
    3.1160   -0.0800    0.3340 N   0  0  0  0  0
    1.7630   -1.3390   -2.8460 C   0  0  0  0  0
    2.2230   -0.4690   -1.8770 C   0  0  0  0  0
    3.1220   -2.9440    1.1380 CL  0  0  0  0  0
    2.2100    3.7690   -0.0240 O   0  0  0  0  0
   -6.6010   -1.8860    0.3990 C   0  0  0  0  0
   -4.4200   -0.2790    0.6380 C   0  0  0  0  0
   -3.2150    0.6180    0.7530 C   0  0  0  0  0
   -0.1510    4.4920   -0.8870 H   0  0  0  0  0
    3.1010    2.5420    2.2490 H   0  0  0  0  0
    5.2240    0.9710    2.5710 H   0  0  0  0  0
    2.1000   -4.2520   -1.1760 H   0  0  0  0  0
    1.3580   -3.3760   -3.3530 H   0  0  0  0  0
   -2.8270    0.6170   -1.3660 H   0  0  0  0  0
   -1.9690   -0.6520   -0.4600 H   0  0  0  0  0
   -6.1180   -2.6350    2.3560 H   0  0  0  0  0
   -6.8050   -0.9450   -1.5050 H   0  0  0  0  0
   -4.1280   -1.1600    2.5690 H   0  0  0  0  0
    0.1780   -0.2620    0.4190 H   0  0  0  0  0
   -2.9350    3.4690   -0.4760 H   0  0  0  0  0
    1.4370   -0.9580   -3.8030 H   0  0  0  0  0
    2.2570    0.5920   -2.0760 H   0  0  0  0  0
    2.3260    4.1630    0.8520 H   0  0  0  0  0
   -7.4700   -2.5150    0.2730 H   0  0  0  0  0
   -2.6780    0.3900    1.6750 H   0  0  0  0  0
   -3.5370    1.6600    0.7690 H   0  0  0  0  0
  1 11  1  0  0  0
  1  2  2  0  0  0
  2 19  1  0  0  0
  3  2  1  0  0  0
  3 29  1  0  0  0
  4 21  1  0  0  0
  4 17  1  0  0  0
  5  4  2  0  0  0
  5 30  1  0  0  0
  6 20  2  0  0  0
  6  5  1  0  0  0
  6 31  1  0  0  0
  7  8  2  0  0  0
  7 23  1  0  0  0
  8  9  1  0  0  0
  9 10  2  0  0  0
  9 32  1  0  0  0
 10 33  1  0  0  0
 11 34  1  0  0  0
 11 35  1  0  0  0
 12 26  1  0  0  0
 12 36  1  0  0  0
 13 37  1  0  0  0
 14 13  1  0  0  0
 15 12  2  0  0  0
 15 27  1  0  0  0
 15 38  1  0  0  0
 16  3  2  0  0  0
 17 18  2  0  0  0
 17 16  1  0  0  0
 18  1  1  0  0  0
 18 39  1  0  0  0
 19 40  1  0  0  0
 20 21  1  0  0  0
 21  7  1  0  0  0
 22 10  1  0  0  0
 22 41  1  0  0  0
 23 22  2  0  0  0
 23 42  1  0  0  0
 24  8  1  0  0  0
 25 16  1  0  0  0
 25 43  1  0  0  0
 26 13  2  0  0  0
 26 44  1  0  0  0
 27 14  2  0  0  0
 28 27  1  0  0  0
 28 11  1  0  0  0
 28 45  1  0  0  0
 28 46  1  0  0  0
M  END
