C4T
  CCTOOLS-0919241036

 49 52  0  0  0  0  0  0  0  0999 V2000
    0.5370    2.0420   -0.1450 C   0  0  0  0  0
    1.2600    3.2490   -0.2200 C   0  0  0  0  0
    2.5630    3.3100    0.2240 C   0  0  0  0  0
    0.6690    4.3580   -0.7340 O   0  0  0  0  0
    2.4550    0.9620    0.8290 C   0  0  0  0  0
    3.1740    2.1740    0.7510 C   0  0  0  0  0
    3.3660   -0.0160    1.4200 C   0  0  0  0  0
    3.0530   -1.4620    1.7050 C   0  0  0  0  0
    3.4080   -2.2990    0.5040 C   0  0  0  0  0
    2.4680   -2.5250   -0.4840 C   0  0  0  0  0
    2.7950   -3.2890   -1.5890 C   0  0  0  0  0
    4.6770   -2.8370    0.3860 C   0  0  0  0  0
   -0.3190   -0.0670   -1.8080 C   0  0  0  0  0
   -2.6090    1.0090   -2.0010 C   0  0  0  0  0
   -4.1850    0.9100   -0.0590 C   0  0  0  0  0
   -5.0260    0.2130    0.7880 C   0  0  0  0  0
    1.1360    0.9030    0.3800 C   0  0  0  0  0
   -0.8590    1.9890   -0.6180 C   0  0  0  0  0
   -1.2510    1.0050   -1.4510 N   0  0  0  0  0
   -1.6560    2.8330   -0.2550 O   0  0  0  0  0
    4.4200    1.9250    1.2600 N   0  0  0  0  0
    4.4960    0.5860    1.6550 N   0  0  0  0  0
    4.0640   -3.8260   -1.7060 C   0  0  0  0  0
    5.0030   -3.6040   -0.7160 C   0  0  0  0  0
   -3.5260    0.2480   -1.0780 C   0  0  0  0  0
   -5.2080   -1.1480    0.6150 C   0  0  0  0  0
   -4.5490   -1.8100   -0.4050 C   0  0  0  0  0
   -3.7080   -1.1110   -1.2510 C   0  0  0  0  0
   -6.2640   -2.0240    1.6790 CL  0  0  0  0  0
    3.1110    4.2380    0.1630 H   0  0  0  0  0
    0.2130    4.9000   -0.0770 H   0  0  0  0  0
    3.6330   -1.7960    2.5650 H   0  0  0  0  0
    1.9900   -1.5680    1.9210 H   0  0  0  0  0
    1.4770   -2.1050   -0.3920 H   0  0  0  0  0
    2.0600   -3.4660   -2.3600 H   0  0  0  0  0
    5.4130   -2.6560    1.1560 H   0  0  0  0  0
   -0.3480   -0.8430   -1.0430 H   0  0  0  0  0
   -0.6060   -0.4930   -2.7700 H   0  0  0  0  0
    0.6910    0.3370   -1.8780 H   0  0  0  0  0
   -2.9600    2.0360   -2.0960 H   0  0  0  0  0
   -2.6050    0.5340   -2.9820 H   0  0  0  0  0
   -4.0460    1.9730    0.0730 H   0  0  0  0  0
   -5.5400    0.7300    1.5840 H   0  0  0  0  0
    0.5840   -0.0230    0.4380 H   0  0  0  0  0
    5.1360    2.5750    1.3360 H   0  0  0  0  0
    4.3190   -4.4230   -2.5690 H   0  0  0  0  0
    5.9940   -4.0240   -0.8080 H   0  0  0  0  0
   -4.6910   -2.8720   -0.5410 H   0  0  0  0  0
   -3.1930   -1.6280   -2.0480 H   0  0  0  0  0
  1 17  2  0  0  0
  1  2  1  0  0  0
  2  3  2  0  0  0
  3  6  1  0  0  0
  3 30  1  0  0  0
  4  2  1  0  0  0
  4 31  1  0  0  0
  5  6  2  0  0  0
  5  7  1  0  0  0
  6 21  1  0  0  0
  7 22  2  0  0  0
  8  7  1  0  0  0
  8 32  1  0  0  0
  8 33  1  0  0  0
  9 12  1  0  0  0
  9  8  1  0  0  0
 10  9  2  0  0  0
 10 34  1  0  0  0
 11 23  2  0  0  0
 11 10  1  0  0  0
 11 35  1  0  0  0
 12 36  1  0  0  0
 13 19  1  0  0  0
 13 37  1  0  0  0
 13 38  1  0  0  0
 13 39  1  0  0  0
 14 25  1  0  0  0
 14 40  1  0  0  0
 14 41  1  0  0  0
 15 16  2  0  0  0
 15 25  1  0  0  0
 15 42  1  0  0  0
 16 26  1  0  0  0
 16 43  1  0  0  0
 17  5  1  0  0  0
 17 44  1  0  0  0
 18  1  1  0  0  0
 19 18  1  0  0  0
 19 14  1  0  0  0
 20 18  2  0  0  0
 21 22  1  0  0  0
 21 45  1  0  0  0
 23 24  1  0  0  0
 23 46  1  0  0  0
 24 12  2  0  0  0
 24 47  1  0  0  0
 25 28  2  0  0  0
 26 29  1  0  0  0
 26 27  2  0  0  0
 27 48  1  0  0  0
 28 27  1  0  0  0
 28 49  1  0  0  0
M  END
