C4N
  CCTOOLS-0919241036

 52 55  0  0  0  0  0  0  0  0999 V2000
    0.1010    2.2010   -0.1690 C   0  0  0  0  0
    0.7010    3.4720   -0.2660 C   0  0  0  0  0
    1.9850    3.6740    0.1930 C   0  0  0  0  0
    0.0100    4.5040   -0.8150 O   0  0  0  0  0
    2.1030    1.3430    0.8560 C   0  0  0  0  0
    2.6980    2.6180    0.7560 C   0  0  0  0  0
    3.0980    0.4760    1.4830 C   0  0  0  0  0
    2.9280   -0.9870    1.8010 C   0  0  0  0  0
    3.3820   -1.8130    0.6260 C   0  0  0  0  0
    2.4840   -2.1560   -0.3670 C   0  0  0  0  0
    2.9030   -2.9100   -1.4480 C   0  0  0  0  0
    4.7000   -2.2240    0.5380 C   0  0  0  0  0
   -0.5150   -0.0230   -1.7880 C   0  0  0  0  0
   -2.8970    0.8130   -2.0360 C   0  0  0  0  0
   -4.4840    0.6040   -0.1120 C   0  0  0  0  0
   -5.2640   -0.1540    0.7420 C   0  0  0  0  0
    6.5530   -3.4280   -0.6360 C   0  0  0  0  0
    0.8030    1.1410    0.3920 C   0  0  0  0  0
   -1.2750    1.9970   -0.6570 C   0  0  0  0  0
   -1.5540    0.9590   -1.4700 N   0  0  0  0  0
   -2.1580    2.7650   -0.3260 O   0  0  0  0  0
    3.9550    2.5080    1.2870 N   0  0  0  0  0
    4.1590    1.1930    1.7160 N   0  0  0  0  0
    4.2200   -3.3200   -1.5360 C   0  0  0  0  0
    5.1170   -2.9810   -0.5400 C   0  0  0  0  0
   -3.7470   -0.0130   -1.1060 C   0  0  0  0  0
   -5.3020   -1.5300    0.6050 C   0  0  0  0  0
   -4.5610   -2.1470   -0.3870 C   0  0  0  0  0
   -3.7900   -1.3880   -1.2470 C   0  0  0  0  0
   -6.2810   -2.4820    1.6770 CL  0  0  0  0  0
    2.4380    4.6510    0.1150 H   0  0  0  0  0
   -0.5080    5.0140   -0.1770 H   0  0  0  0  0
    3.5250   -1.2410    2.6770 H   0  0  0  0  0
    1.8770   -1.1940    2.0060 H   0  0  0  0  0
    1.4550   -1.8360   -0.2980 H   0  0  0  0  0
    2.2010   -3.1780   -2.2240 H   0  0  0  0  0
    5.4030   -1.9520    1.3110 H   0  0  0  0  0
   -0.4770   -0.7790   -1.0040 H   0  0  0  0  0
   -0.7440   -0.4990   -2.7420 H   0  0  0  0  0
    0.4510    0.4790   -1.8560 H   0  0  0  0  0
   -3.3480    1.7980   -2.1620 H   0  0  0  0  0
   -2.8320    0.3170   -3.0050 H   0  0  0  0  0
   -4.4540    1.6780   -0.0060 H   0  0  0  0  0
   -5.8430    0.3290    1.5150 H   0  0  0  0  0
    7.1340   -2.6740   -1.1650 H   0  0  0  0  0
    6.9590   -3.5630    0.3660 H   0  0  0  0  0
    6.6040   -4.3720   -1.1790 H   0  0  0  0  0
    0.3450    0.1660    0.4680 H   0  0  0  0  0
    4.6020    3.2280    1.3550 H   0  0  0  0  0
    4.5470   -3.9090   -2.3800 H   0  0  0  0  0
   -4.5900   -3.2210   -0.4940 H   0  0  0  0  0
   -3.2110   -1.8690   -2.0210 H   0  0  0  0  0
  1 18  2  0  0  0
  1  2  1  0  0  0
  2  3  2  0  0  0
  3  6  1  0  0  0
  3 31  1  0  0  0
  4  2  1  0  0  0
  4 32  1  0  0  0
  5  6  2  0  0  0
  5  7  1  0  0  0
  6 22  1  0  0  0
  7 23  2  0  0  0
  8  7  1  0  0  0
  8 33  1  0  0  0
  8 34  1  0  0  0
  9 12  1  0  0  0
  9  8  1  0  0  0
 10  9  2  0  0  0
 10 35  1  0  0  0
 11 10  1  0  0  0
 11 36  1  0  0  0
 12 37  1  0  0  0
 13 20  1  0  0  0
 13 38  1  0  0  0
 13 39  1  0  0  0
 13 40  1  0  0  0
 14 26  1  0  0  0
 14 41  1  0  0  0
 14 42  1  0  0  0
 15 16  1  0  0  0
 15 43  1  0  0  0
 16 44  1  0  0  0
 17 25  1  0  0  0
 17 45  1  0  0  0
 17 46  1  0  0  0
 17 47  1  0  0  0
 18  5  1  0  0  0
 18 48  1  0  0  0
 19  1  1  0  0  0
 20 19  1  0  0  0
 20 14  1  0  0  0
 21 19  2  0  0  0
 22 23  1  0  0  0
 22 49  1  0  0  0
 24 11  2  0  0  0
 24 25  1  0  0  0
 24 50  1  0  0  0
 25 12  2  0  0  0
 26 15  2  0  0  0
 27 30  1  0  0  0
 27 16  2  0  0  0
 28 27  1  0  0  0
 28 51  1  0  0  0
 29 28  2  0  0  0
 29 26  1  0  0  0
 29 52  1  0  0  0
M  END
