C8W
  CCTOOLS-0919241037

 50 52  0  0  0  0  0  0  0  0999 V2000
   -3.4200    0.0700    0.3680 C   0  0  0  0  0
    5.6030   -1.2090    3.0340 N   0  0  0  0  0
    2.1990    2.8980   -1.4230 C   0  0  0  0  0
    1.2260    1.9000   -1.6290 C   0  0  0  0  0
    0.1280    2.1260   -2.5220 C   0  0  0  0  0
    3.3700    1.5560    0.0800 C   0  0  0  0  0
    2.4590    0.5040   -0.0700 C   0  0  0  0  0
    2.8030   -0.6450    0.7460 C   0  0  0  0  0
   -0.2060   -2.5670   -2.0080 C   0  0  0  0  0
    0.7180   -1.5600   -1.8280 C   0  0  0  0  0
    0.3610   -0.3990   -1.1400 C   0  0  0  0  0
   -0.9340   -0.2610   -0.6340 C   0  0  0  0  0
   -4.8740    0.0360    0.8420 C   0  0  0  0  0
   -3.1170   -1.1420   -0.3270 O   0  0  0  0  0
    4.6420    1.0950    1.2070 S   0  0  0  0  0
    3.9270   -0.4800    1.4890 C   0  0  0  0  0
    4.4650   -1.4600    2.3570 C   0  0  0  0  0
    2.0910    4.1060   -2.0880 N   0  0  0  0  0
    3.2070    2.6970   -0.6000 N   0  0  0  0  0
   -0.7420    2.3050   -3.2290 N   0  0  0  0  0
    2.0490   -1.8090    0.7650 N   0  0  0  0  0
   -1.8550   -1.2730   -0.8180 C   0  0  0  0  0
   -1.4920   -2.4300   -1.5060 C   0  0  0  0  0
    1.3510    0.6810   -0.9460 C   0  0  0  0  0
   -2.4020   -3.4230   -1.6910 O   0  0  0  0  0
   -1.9640   -4.5770   -2.4100 C   0  0  0  0  0
    3.8980   -2.5300    2.4920 O   0  0  0  0  0
   -5.1980    1.3330    1.5860 C   0  0  0  0  0
   -6.6310    1.2990    2.0530 C   0  0  0  0  0
   -7.1390    2.3390    2.7330 O   0  0  0  0  0
   -7.3210    0.3360    1.8160 O   0  0  0  0  0
   -3.2760    0.9180   -0.3020 H   0  0  0  0  0
   -2.7590    0.1700    1.2280 H   0  0  0  0  0
    6.0540   -0.3570    2.9260 H   0  0  0  0  0
    5.9710   -1.8810    3.6290 H   0  0  0  0  0
    0.0700   -3.4620   -2.5450 H   0  0  0  0  0
    1.7190   -1.6690   -2.2200 H   0  0  0  0  0
   -1.2140    0.6360   -0.1010 H   0  0  0  0  0
   -5.5350   -0.0650   -0.0190 H   0  0  0  0  0
   -5.0180   -0.8130    1.5120 H   0  0  0  0  0
    1.3490    4.2610   -2.6930 H   0  0  0  0  0
    2.7580    4.7970   -1.9500 H   0  0  0  0  0
    1.1390   -1.8040    0.4300 H   0  0  0  0  0
    2.4320   -2.6290    1.1150 H   0  0  0  0  0
   -2.7850   -5.2910   -2.4860 H   0  0  0  0  0
   -1.6450   -4.2830   -3.4100 H   0  0  0  0  0
   -1.1290   -5.0390   -1.8830 H   0  0  0  0  0
   -4.5370    1.4330    2.4470 H   0  0  0  0  0
   -5.0550    2.1810    0.9160 H   0  0  0  0  0
   -8.0630    2.2710    3.0120 H   0  0  0  0  0
  1 13  1  0  0  0
  1 32  1  0  0  0
  1 33  1  0  0  0
  2 17  1  0  0  0
  2 34  1  0  0  0
  2 35  1  0  0  0
  3  4  1  0  0  0
  3 18  1  0  0  0
  4  5  1  0  0  0
  5 20  3  0  0  0
  6  7  2  0  0  0
  6 19  1  0  0  0
  7 24  1  0  0  0
  8 21  1  0  0  0
  8  7  1  0  0  0
  9 23  2  0  0  0
  9 36  1  0  0  0
 10 11  2  0  0  0
 10  9  1  0  0  0
 10 37  1  0  0  0
 11 12  1  0  0  0
 12 22  2  0  0  0
 12 38  1  0  0  0
 13 39  1  0  0  0
 13 40  1  0  0  0
 14  1  1  0  0  0
 15  6  1  0  0  0
 16 15  1  0  0  0
 16  8  2  0  0  0
 17 16  1  0  0  0
 18 41  1  0  0  0
 18 42  1  0  0  0
 19  3  2  0  0  0
 21 43  1  0  0  0
 21 44  1  0  0  0
 22 14  1  0  0  0
 23 22  1  0  0  0
 23 25  1  0  0  0
 24 11  1  0  0  0
 24  4  2  0  0  0
 26 25  1  0  0  0
 26 45  1  0  0  0
 26 46  1  0  0  0
 26 47  1  0  0  0
 27 17  2  0  0  0
 28 13  1  0  0  0
 28 48  1  0  0  0
 28 49  1  0  0  0
 29 30  1  0  0  0
 29 28  1  0  0  0
 30 50  1  0  0  0
 31 29  2  0  0  0
M  END
