BSM
                    3D
 Schrodinger Suite 2021-2.
 45 47  0  0  1  0            999 V2000
   35.0300    5.5210   21.5590 C   0  0  0  0  0  0
   35.4700    6.0780   22.7990 O   0  0  0  0  0  0
   34.4740    6.6820   23.5620 C   0  0  0  0  0  0
   33.1400    6.8550   23.1240 C   0  0  0  0  0  0
   32.1930    7.4710   23.9890 C   0  0  0  0  0  0
   34.8200    7.1250   24.8320 C   0  0  0  0  0  0
   33.8950    7.7530   25.6730 C   0  0  0  0  0  0
   32.5790    7.9360   25.2640 C   0  0  0  0  0  0
   31.6570    8.5710   26.1310 C   0  0  0  0  0  0
   31.3230    8.1960   27.4090 C   0  0  0  0  0  0
   31.8440    7.0080   28.2280 C   0  0  0  0  0  0
   32.3840    6.0480   27.7010 O   0  0  0  0  0  0
   31.6730    7.1410   29.5480 N   0  0  0  0  0  0
   32.0460    6.1200   30.5660 C   0  0  0  0  0  0
   33.4590    5.5720   30.3570 C   0  0  0  0  0  0
   30.4190    9.0730   27.8520 N   0  0  0  0  0  0
   30.1470    9.9480   26.9810 N   0  0  0  0  0  0
   30.8870    9.7460   25.8920 C   0  0  0  0  0  0
   30.8960   10.5090   24.7240 C   0  0  0  0  0  0
   32.0850   11.0070   24.2240 C   0  0  0  0  0  0
   32.0980   11.7910   23.0590 C   0  0  0  0  0  0
   33.5840   12.4180   22.4400 Cl  0  0  0  0  0  0
   30.9090   12.0920   22.4120 C   0  0  0  0  0  0
   30.9180   12.8280   21.2740 O   0  0  0  0  0  0
   29.7020   11.5950   22.9230 C   0  0  0  0  0  0
   29.7050   10.8360   24.0920 C   0  0  0  0  0  0
   28.5470   10.3880   24.5870 O   0  0  0  0  0  0
   35.8860    5.0707   21.0350 H   0  0  0  0  0  0
   34.5942    6.3148   20.9346 H   0  0  0  0  0  0
   34.2711    4.7486   21.7528 H   0  0  0  0  0  0
   32.8360    6.5150   22.1200 H   0  0  0  0  0  0
   31.1470    7.5860   23.6600 H   0  0  0  0  0  0
   35.8540    6.9770   25.1880 H   0  0  0  0  0  0
   34.2130    8.1060   26.6690 H   0  0  0  0  0  0
   31.2191    8.0920   29.8635 H   0  0  0  0  0  0
   32.0024    6.5694   31.5691 H   0  0  0  0  0  0
   31.3440    5.2749   30.5120 H   0  0  0  0  0  0
   33.6811    4.8251   31.1334 H   0  0  0  0  0  0
   34.1851    6.3957   30.4222 H   0  0  0  0  0  0
   33.5267    5.1012   29.3651 H   0  0  0  0  0  0
   29.3924   10.7196   27.1935 H   0  0  0  0  0  0
   33.0320   10.7860   24.7450 H   0  0  0  0  0  0
   31.8679   13.2157   20.8772 H   0  0  0  0  0  0
   28.7530   11.8040   22.4020 H   0  0  0  0  0  0
   28.5383    9.7882   25.5090 H   0  0  0  0  0  0
  1  2  1  0  0  0
  1 28  1  0  0  0
  1 29  1  0  0  0
  1 30  1  0  0  0
  2  3  1  0  0  0
  3  4  2  0  0  0
  3  6  1  0  0  0
  4  5  1  0  0  0
  4 31  1  0  0  0
  5  8  2  0  0  0
  5 32  1  0  0  0
  6  7  2  0  0  0
  6 33  1  0  0  0
  7  8  1  0  0  0
  7 34  1  0  0  0
  8  9  1  0  0  0
  9 10  1  0  0  0
  9 18  2  0  0  0
 10 11  1  0  0  0
 10 16  2  0  0  0
 11 12  2  0  0  0
 11 13  1  0  0  0
 13 14  1  0  0  0
 13 35  1  0  0  0
 14 15  1  0  0  0
 14 36  1  0  0  0
 14 37  1  0  0  0
 15 38  1  0  0  0
 15 39  1  0  0  0
 15 40  1  0  0  0
 16 17  1  0  0  0
 17 18  1  0  0  0
 17 41  1  0  0  0
 18 19  1  0  0  0
 19 20  2  0  0  0
 19 26  1  0  0  0
 20 21  1  0  0  0
 20 42  1  0  0  0
 21 22  1  0  0  0
 21 23  2  0  0  0
 23 24  1  0  0  0
 23 25  1  0  0  0
 24 43  1  0  0  0
 25 26  2  0  0  0
 25 44  1  0  0  0
 26 27  1  0  0  0
 27 45  1  0  0  0
M  END
> <s_m_source_file>
../wget-ligand-expo/BSM_model.sdf

> <i_m_source_file_index>
1

> <i_lp_mmshare_version>
54117

> <s_epik_input>
W0NIM11PYzFbY0hdW2NIXWMoW2NIXVtjSF0xKS1jMmMoQyg9TylbTkhdW0NIMl1bQ0gzXSluW25IXWMyLWMzW2NIXWMoQ2wpYyhbT0hdKVtjSF1jM1tPSF0=

> <s_epik_cmdline>
J2VwaWtfcHl0aG9uJywgJy1waHQnLCAnMC4wJywgJy1waCcsICc3LjQnLCAnLW50JywgJy1tYScsICcyMDAnLCAnLWltYWUnLCAnPGluZmlsZS5tYWU+JywgJy1vbWFlJywgJzxvdXRmaWxlLm1hZT4n

> <r_lp_tautomer_probability>
0.5

> <r_epik_Ionization_Penalty>
0.308837

> <r_epik_Ionization_Penalty_Charging>
0

> <r_epik_Ionization_Penalty_Neutral>
0.308837

> <r_epik_State_Penalty>
0.272767

> <r_epik_Charging_Adjusted_Penalty>
0.272767

> <i_epik_Tot_Q>
0

> <i_epik_Tot_abs_Q>
0

> <s_lp_Variant>
BSM-1

$$$$
