2GG
                    3D
 Schrodinger Suite 2021-2.
 43 45  0  0  1  0            999 V2000
   35.1100    5.6100   21.6240 C   0  0  0  0  0  0
   35.4350    6.2380   22.9030 O   0  0  0  0  0  0
   34.4180    6.7760   23.6490 C   0  0  0  0  0  0
   33.0590    6.7530   23.2680 C   0  0  0  0  0  0
   32.0940    7.3320   24.1290 C   0  0  0  0  0  0
   34.7730    7.3510   24.8900 C   0  0  0  0  0  0
   33.8030    7.9190   25.7240 C   0  0  0  0  0  0
   32.4480    7.9140   25.3780 C   0  0  0  0  0  0
   31.4680    8.5170   26.2370 C   0  0  0  0  0  0
   31.0410    8.0900   27.5120 C   0  0  0  0  0  0
   31.5650    6.9080   28.2960 C   0  0  0  0  0  0
   32.0520    5.9280   27.7380 O   0  0  0  0  0  0
   31.5370    7.0580   29.6330 N   0  0  0  0  0  0
   32.0110    5.9860   30.5390 C   0  0  0  0  0  0
   33.4920    6.2160   30.8900 C   0  0  0  0  0  0
   30.0930    8.8920   28.0040 N   0  0  0  0  0  0
   30.7040    9.6700   25.9840 C   0  0  0  0  0  0
   30.7220   10.4920   24.8390 C   0  0  0  0  0  0
   31.9450   11.0010   24.3910 C   0  0  0  0  0  0
   32.0160   11.8130   23.2580 C   0  0  0  0  0  0
   33.5480   12.4520   22.7020 Cl  0  0  0  0  0  0
   30.8300   12.1310   22.5810 C   0  0  0  0  0  0
   30.8780   12.8740   21.4710 O   0  5  0  0  0  0
   29.5990   11.6240   23.0020 C   0  0  0  0  0  0
   29.5450   10.8400   24.1630 C   0  0  0  0  0  0
   28.3380   10.3530   24.5620 O   0  0  0  0  0  0
   29.8850    9.8740   27.0470 O   0  0  0  0  0  0
   36.0313    5.2324   21.1564 H   0  0  0  0  0  0
   34.6392    6.3508   20.9609 H   0  0  0  0  0  0
   34.4149    4.7742   21.7921 H   0  0  0  0  0  0
   32.7590    6.3010   22.3340 H   0  0  0  0  0  0
   35.8080    7.3520   25.1990 H   0  0  0  0  0  0
   31.0570    7.3310   23.8280 H   0  0  0  0  0  0
   34.1080    8.3710   26.6560 H   0  0  0  0  0  0
   31.1521    8.0003   30.0500 H   0  0  0  0  0  0
   31.4130    5.9952   31.4622 H   0  0  0  0  0  0
   31.9026    5.0109   30.0416 H   0  0  0  0  0  0
   33.8377    5.4172   31.5626 H   0  0  0  0  0  0
   33.6035    7.1897   31.3895 H   0  0  0  0  0  0
   34.0930    6.2055   29.9688 H   0  0  0  0  0  0
   32.8490   10.7620   24.9310 H   0  0  0  0  0  0
   28.7000   11.8330   22.4410 H   0  0  0  0  0  0
   28.2669    9.7351   25.4692 H   0  0  0  0  0  0
  1  2  1  0  0  0
  1 28  1  0  0  0
  1 29  1  0  0  0
  1 30  1  0  0  0
  2  3  1  0  0  0
  3  4  1  0  0  0
  3  6  2  0  0  0
  4  5  2  0  0  0
  4 31  1  0  0  0
  5  8  1  0  0  0
  5 33  1  0  0  0
  6  7  1  0  0  0
  6 32  1  0  0  0
  7  8  2  0  0  0
  7 34  1  0  0  0
  8  9  1  0  0  0
  9 10  1  0  0  0
  9 17  2  0  0  0
 10 11  1  0  0  0
 10 16  2  0  0  0
 11 12  2  0  0  0
 11 13  1  0  0  0
 13 14  1  0  0  0
 13 35  1  0  0  0
 14 15  1  0  0  0
 14 36  1  0  0  0
 14 37  1  0  0  0
 15 38  1  0  0  0
 15 39  1  0  0  0
 15 40  1  0  0  0
 16 27  1  0  0  0
 17 18  1  0  0  0
 17 27  1  0  0  0
 18 19  1  0  0  0
 18 25  2  0  0  0
 19 20  2  0  0  0
 19 41  1  0  0  0
 20 21  1  0  0  0
 20 22  1  0  0  0
 22 23  1  0  0  0
 22 24  2  0  0  0
 24 25  1  0  0  0
 24 42  1  0  0  0
 25 26  1  0  0  0
 26 43  1  0  0  0
M  CHG  1  23  -1
M  END
> <s_m_source_file>
../wget-ligand-expo/2GG_model.sdf

> <i_m_source_file_index>
1

> <i_lp_mmshare_version>
54117

> <s_epik_input>
W0NIM11PYzFbY0hdW2NIXWMoW2NIXVtjSF0xKS1jMmMoQyg9TylbTkhdW0NIMl1bQ0gzXSlub2MyLWMzW2NIXWMoQ2wpYyhbT0hdKVtjSF1jM1tPSF0=

> <s_epik_cmdline>
J2VwaWtfcHl0aG9uJywgJy1waHQnLCAnMC4wJywgJy1waCcsICc3LjQnLCAnLW50JywgJy1tYScsICcyMDAnLCAnLWltYWUnLCAnPGluZmlsZS5tYWU+JywgJy1vbWFlJywgJzxvdXRmaWxlLm1hZT4n

> <r_lp_tautomer_probability>
1

> <r_epik_Ionization_Penalty>
0.0736393

> <r_epik_Ionization_Penalty_Charging>
0.052377

> <r_epik_Ionization_Penalty_Neutral>
0.0212624

> <r_epik_State_Penalty>
-0

> <r_epik_Charging_Adjusted_Penalty>
0.052377

> <i_epik_Tot_Q>
-1

> <i_epik_Tot_abs_Q>
1

> <s_lp_Variant>
2GG-1

$$$$
