YKJ
                    3D
 Schrodinger Suite 2021-2.
 50 55  0  0  1  0            999 V2000
   13.1520   14.4950   26.2760 C   0  0  0  0  0  0
   12.9260   14.6720   27.6520 N   0  0  0  0  0  0
   11.6030   14.7360   28.1440 C   0  0  0  0  0  0
    9.1350   14.6340   27.3730 N   0  0  0  0  0  0
   12.1050   14.3630   25.3320 C   0  0  0  0  0  0
    9.5920   14.3510   25.2370 N   0  0  0  0  0  0
    8.5930   14.4740   26.1330 C   0  0  0  0  0  0
    3.3040   11.8800   24.7550 N   0  0  0  0  0  0
   10.7850   14.4320   25.8350 C   0  0  0  0  0  0
   -1.4040   10.6120   26.1590 N   0  0  0  0  0  0
   10.5070   14.6120   27.2580 C   0  0  0  0  0  0
   -2.5420   11.6300   24.4050 N   0  0  0  0  0  0
    7.2490   14.4620   25.8820 C   0  0  0  0  0  0
    4.3600   14.7540   25.4810 C   0  0  0  0  0  0
    5.0760   15.7290   26.2640 C   0  0  0  0  0  0
    6.5000   15.5720   26.4450 C   0  0  0  0  0  0
    2.2150   11.7190   23.9890 C   0  0  0  0  0  0
    1.0530   11.2340   24.9200 C   0  0  0  0  0  0
    2.1780   11.9140   22.7590 O   0  0  0  0  0  0
    1.0640   10.5310   26.1700 C   0  0  0  0  0  0
   -0.1930   10.2330   26.7690 C   0  0  0  0  0  0
    4.5600   12.6250   24.1380 C   0  0  1  0  0  0
    5.0830   13.6370   24.9110 C   0  0  0  0  0  0
    6.5020   13.4500   25.0750 C   0  0  0  0  0  0
    5.6080   11.6790   23.7630 C   0  0  0  0  0  0
    6.8400   12.2450   24.3800 C   0  0  0  0  0  0
    8.0900   11.5090   24.1700 C   0  0  0  0  0  0
    8.1340   10.2650   23.3910 C   0  0  0  0  0  0
    6.9060    9.7460   22.8080 C   0  0  0  0  0  0
    5.6620   10.4630   23.0010 C   0  0  0  0  0  0
   -0.1780   11.6410   24.2640 C   0  0  0  0  0  0
   -1.3830   11.2970   24.9400 C   0  0  0  0  0  0
   14.1720   14.4580   25.9220 H   0  0  0  0  0  0
   12.3040   14.2170   24.2810 H   0  0  0  0  0  0
   11.4280   14.8800   29.2000 H   0  0  0  0  0  0
    8.4797   14.7522   28.2486 H   0  0  0  0  0  0
    3.3385   11.5084   25.7898 H   0  0  0  0  0  0
    4.2853   13.2172   23.2527 H   0  0  0  0  0  0
   -0.2180    9.7050   27.7110 H   0  0  0  0  0  0
   -3.4796   11.3697   24.9179 H   0  0  0  0  0  0
   -2.5708   12.1680   23.4460 H   0  0  0  0  0  0
    7.0320   16.3120   27.0240 H   0  0  0  0  0  0
    3.2970   14.8550   25.3210 H   0  0  0  0  0  0
    4.5560   16.5640   26.7090 H   0  0  0  0  0  0
    1.9910   10.2380   26.6400 H   0  0  0  0  0  0
   -0.1790   12.1710   23.3230 H   0  0  0  0  0  0
    4.7550   10.0740   22.5620 H   0  0  0  0  0  0
    9.0040   11.8920   24.6000 H   0  0  0  0  0  0
    9.0680    9.7410   23.2520 H   0  0  0  0  0  0
    6.9220    8.8310   22.2340 H   0  0  0  0  0  0
  1  2  2  0  0  0
  1  5  1  0  0  0
  1 33  1  0  0  0
  2  3  1  0  0  0
  3 11  2  0  0  0
  3 35  1  0  0  0
  4  7  1  0  0  0
  4 11  1  0  0  0
  4 36  1  0  0  0
  5  9  2  0  0  0
  5 34  1  0  0  0
  6  7  2  0  0  0
  6  9  1  0  0  0
  7 13  1  0  0  0
  8 17  1  0  0  0
  8 22  1  0  0  0
  8 37  1  0  0  0
  9 11  1  0  0  0
 10 21  1  0  0  0
 10 32  2  0  0  0
 12 32  1  0  0  0
 12 40  1  0  0  0
 12 41  1  0  0  0
 13 16  1  0  0  0
 13 24  2  0  0  0
 14 15  1  0  0  0
 14 23  2  0  0  0
 14 43  1  0  0  0
 15 16  2  0  0  0
 15 44  1  0  0  0
 16 42  1  0  0  0
 17 18  1  0  0  0
 17 19  2  0  0  0
 18 20  1  0  0  0
 18 31  2  0  0  0
 20 21  2  0  0  0
 20 45  1  0  0  0
 21 39  1  0  0  0
 22 23  1  0  0  0
 22 25  1  0  0  0
 22 38  1  0  0  0
 23 24  1  0  0  0
 24 26  1  0  0  0
 25 26  1  0  0  0
 25 30  2  0  0  0
 26 27  2  0  0  0
 27 28  1  0  0  0
 27 48  1  0  0  0
 28 29  2  0  0  0
 28 49  1  0  0  0
 29 30  1  0  0  0
 29 50  1  0  0  0
 30 47  1  0  0  0
 31 32  1  0  0  0
 31 46  1  0  0  0
M  END
> <s_m_source_file>
../wget-ligand-expo/YKJ_model.sdf

> <i_m_source_file_index>
1

> <i_lp_mmshare_version>
54117

> <s_epik_input>
W2NIXTFbY0hdbltjSF1jKGMxMilbbkhdYyhuMiktYyhbY0hdW2NIXVtjSF0zKWMoYzM0KWM1YyhbY0hdW2NIXVtjSF1bY0hdNSlbQ0BIXTRbTkhdQyg9TyljNltjSF1bY0hdbmMoW05IMl0pW2NIXTY=

> <s_epik_cmdline>
J2VwaWtfcHl0aG9uJywgJy1waHQnLCAnMC4wJywgJy1waCcsICc3LjQnLCAnLW50JywgJy1tYScsICcyMDAnLCAnLWltYWUnLCAnPGluZmlsZS5tYWU+JywgJy1vbWFlJywgJzxvdXRmaWxlLm1hZT4n

> <r_lp_tautomer_probability>
1

> <r_epik_Ionization_Penalty>
0.0201638

> <r_epik_Ionization_Penalty_Charging>
0.0188856

> <r_epik_Ionization_Penalty_Neutral>
0.00127815

> <r_epik_State_Penalty>
-0

> <r_epik_Charging_Adjusted_Penalty>
0.0188856

> <i_epik_Tot_Q>
0

> <i_epik_Tot_abs_Q>
0

> <s_lp_Variant>
YKJ-1

$$$$
