YKI
                    3D
 Schrodinger Suite 2021-2.
 52 58  0  0  1  0            999 V2000
   13.3100   14.4050   26.4850 C   0  0  0  0  0  0
   13.0260   14.6140   27.8340 N   0  0  0  0  0  0
   11.7160   14.6960   28.2950 C   0  0  0  0  0  0
    9.2910   14.5930   27.4880 N   0  0  0  0  0  0
   12.2830   14.2610   25.5220 C   0  0  0  0  0  0
    9.7400   14.2580   25.3430 N   0  0  0  0  0  0
    8.7580   14.4110   26.2680 C   0  0  0  0  0  0
    3.5690   11.9560   24.6550 N   0  0  0  0  0  0
   10.9530   14.3440   25.9690 C   0  0  0  0  0  0
   -1.1620   10.2670   26.1340 N   0  0  0  0  0  0
   10.6580   14.5590   27.3740 C   0  0  0  0  0  0
   -2.3590   11.5620   24.3860 N   0  0  0  0  0  0
    7.3310   14.4050   26.0300 C   0  0  0  0  0  0
    4.4750   14.5760   25.6390 C   0  0  0  0  0  0
    5.1590   15.5770   26.3920 C   0  0  0  0  0  0
    6.5780   15.4750   26.5770 C   0  0  0  0  0  0
    2.4440   11.4850   24.0790 C   0  0  0  0  0  0
    1.2430   11.0110   24.8590 C   0  0  0  0  0  0
    2.4240   11.4800   22.8390 O   0  0  0  0  0  0
    1.2920   10.1820   26.0380 C   0  0  0  0  0  0
    0.0470    9.8260   26.6640 C   0  0  0  0  0  0
    4.5710   12.3870   24.2720 C   0  0  1  0  0  0
    5.1960   13.4650   25.0650 C   0  0  0  0  0  0
    6.5850   13.3350   25.2300 C   0  0  0  0  0  0
    5.8240   11.5170   23.9560 C   0  0  0  0  0  0
    7.0090   12.1050   24.5250 C   0  0  0  0  0  0
    8.2930   11.4330   24.3260 C   0  0  0  0  0  0
    8.3700   10.2140   23.5750 C   0  0  0  0  0  0
    7.1600    9.6370   23.0090 C   0  0  0  0  0  0
    5.8960   10.2880   23.1980 C   0  0  0  0  0  0
   -0.0800   11.4560   24.3250 C   0  0  0  0  0  0
   -1.2240   11.0730   24.9920 C   0  0  0  0  0  0
   -1.9350   12.2990   23.2940 C   0  0  0  0  0  0
   -0.5270   12.2640   23.2210 C   0  0  0  0  0  0
   14.3410   14.3520   26.1670 H   0  0  0  0  0  0
   11.5130   14.8620   29.3430 H   0  0  0  0  0  0
   12.5130   14.0930   24.4800 H   0  0  0  0  0  0
    3.3869   11.8647   25.7360 H   0  0  0  0  0  0
    3.4070   14.6510   25.4970 H   0  0  0  0  0  0
    4.6130   16.4050   26.8190 H   0  0  0  0  0  0
    7.0880   16.2360   27.1500 H   0  0  0  0  0  0
    2.2350    9.8390   26.4390 H   0  0  0  0  0  0
    0.0500    9.2120   27.5520 H   0  0  0  0  0  0
    3.7987   12.5836   23.5138 H   0  0  0  0  0  0
    9.1910   11.8590   24.7490 H   0  0  0  0  0  0
    9.3220    9.7260   23.4300 H   0  0  0  0  0  0
    7.2140    8.7170   22.4460 H   0  0  0  0  0  0
    4.9990    9.8610   22.7750 H   0  0  0  0  0  0
   -2.5820   12.8200   22.6040 H   0  0  0  0  0  0
    0.0940   12.7480   22.4820 H   0  0  0  0  0  0
    8.6348   14.7354   28.3592 H   0  0  0  0  0  0
   -3.3495   11.3285   24.8036 H   0  0  0  0  0  0
  1  2  1  0  0  0
  1 35  1  0  0  0
  1  5  2  0  0  0
  2  3  2  0  0  0
  3 36  1  0  0  0
  3 11  1  0  0  0
  4 51  1  0  0  0
  4  7  1  0  0  0
  4 11  1  0  0  0
  5  9  1  0  0  0
  5 37  1  0  0  0
  6  9  1  0  0  0
  6  7  2  0  0  0
  7 13  1  0  0  0
  8 38  1  0  0  0
  8 17  1  0  0  0
  8 22  1  0  0  0
  9 11  2  0  0  0
 10 21  1  0  0  0
 10 32  2  0  0  0
 12 32  1  0  0  0
 12 52  1  0  0  0
 12 33  1  0  0  0
 13 16  1  0  0  0
 13 24  2  0  0  0
 14 15  1  0  0  0
 14 39  1  0  0  0
 14 23  2  0  0  0
 15 16  2  0  0  0
 15 40  1  0  0  0
 16 41  1  0  0  0
 17 18  1  0  0  0
 17 19  2  0  0  0
 18 20  1  0  0  0
 18 31  2  0  0  0
 20 21  2  0  0  0
 20 42  1  0  0  0
 21 43  1  0  0  0
 22 23  1  0  0  0
 22 44  1  0  0  0
 22 25  1  0  0  0
 23 24  1  0  0  0
 24 26  1  0  0  0
 25 26  1  0  0  0
 25 30  2  0  0  0
 26 27  2  0  0  0
 27 45  1  0  0  0
 27 28  1  0  0  0
 28 46  1  0  0  0
 28 29  2  0  0  0
 29 30  1  0  0  0
 29 47  1  0  0  0
 30 48  1  0  0  0
 31 32  1  0  0  0
 31 34  1  0  0  0
 33 49  1  0  0  0
 33 34  2  0  0  0
 34 50  1  0  0  0
M  END
> <s_m_source_file>
../wget-ligand-expo/YKI_model.sdf

> <i_m_source_file_index>
1

> <i_lp_mmshare_version>
54117

> <s_epik_input>
W2NIXTFbY0hdbltjSF1jKGMxMilbbkhdYyhuMiktYyhbY0hdW2NIXVtjSF0zKWMoYzM0KWM1YyhbY0hdW2NIXVtjSF1bY0hdNSlbQ0BIXTRbTkhdQyg9TyljNltjSF1bY0hdbmMoYzY3KVtuSF1bY0hdW2NIXTc=

> <s_epik_cmdline>
J2VwaWtfcHl0aG9uJywgJy1waHQnLCAnMC4wJywgJy1waCcsICc3LjQnLCAnLW50JywgJy1tYScsICcyMDAnLCAnLWltYWUnLCAnPGluZmlsZS5tYWU+JywgJy1vbWFlJywgJzxvdXRmaWxlLm1hZT4n

> <r_lp_tautomer_probability>
1

> <r_epik_Ionization_Penalty>
0.0197608

> <r_epik_Ionization_Penalty_Charging>
0.0188856

> <r_epik_Ionization_Penalty_Neutral>
0.000875208

> <r_epik_State_Penalty>
-0

> <r_epik_Charging_Adjusted_Penalty>
0.0188856

> <i_epik_Tot_Q>
0

> <i_epik_Tot_abs_Q>
0

> <s_lp_Variant>
YKI-1

$$$$
