6FJ
                    3D
 Schrodinger Suite 2021-2.
 47 50  0  0  1  0            999 V2000
    0.1790   36.9880   24.4590 C   0  0  0  0  0  0
   -0.1900   31.9060   26.0520 C   0  0  0  0  0  0
   -1.4460   32.2450   25.4980 C   0  0  0  0  0  0
    1.0070   32.3670   25.4520 C   0  0  0  0  0  0
   -0.3370   34.3250   22.5070 C   0  0  0  0  0  0
    0.0440   36.0830   21.2360 C   0  0  0  0  0  0
    0.9270   36.2280   23.5420 C   0  0  0  0  0  0
    2.1800   37.5310   25.7220 C   0  0  0  0  0  0
    2.3780   31.9760   25.8910 C   0  0  0  0  0  0
    5.1150   30.3190   24.5340 C   0  0  0  0  0  0
    5.7720   29.2080   24.1180 C   0  0  0  0  0  0
   -1.4870   32.9660   24.2910 C   0  0  0  0  0  0
   -0.3010   33.4550   23.7090 C   0  0  0  0  0  0
    0.9380   33.1050   24.2590 C   0  0  0  0  0  0
   -0.9360   34.0780   21.3510 N   0  0  0  0  0  0
    0.2810   35.5690   22.4580 N   0  0  0  0  0  0
   -2.6890   33.2980   23.7280 O   0  5  0  0  0  0
   -0.0960   31.1830   27.1890 O   0  0  0  0  0  0
   -0.6980   35.1950   20.5320 N   0  0  0  0  0  0
    0.4160   37.1960   20.8670 O   0  0  0  0  0  0
    2.3160   36.1300   23.7440 C   0  0  0  0  0  0
    2.9410   36.7760   24.8240 C   0  0  0  0  0  0
    2.9390   30.7850   25.5020 N   0  0  0  0  0  0
    3.0350   32.8000   26.5050 O   0  0  0  0  0  0
    4.3360   30.4480   25.8270 C   0  0  0  0  0  0
    0.8090   37.6170   25.5360 C   0  0  0  0  0  0
    2.1860   29.7310   24.8250 C   0  0  0  0  0  0
    5.2610   31.2920   23.6050 O   0  0  0  0  0  0
    6.0180   30.8330   22.5970 C   0  0  0  0  0  0
    6.3430   29.5430   22.8630 C   0  0  0  0  0  0
    3.0430   35.4140   22.8630 F   0  0  0  0  0  0
   -0.8890   37.0860   24.3300 H   0  0  0  0  0  0
   -2.3600   31.9550   25.9940 H   0  0  0  0  0  0
    2.6540   38.0400   26.5490 H   0  0  0  0  0  0
    5.8450   28.2630   24.6350 H   0  0  0  0  0  0
    1.8490   33.4050   23.7620 H   0  0  0  0  0  0
   -1.0067   30.8099   27.6804 H   0  0  0  0  0  0
   -1.0003   35.4268   19.5000 H   0  0  0  0  0  0
    4.0090   36.6890   24.9610 H   0  0  0  0  0  0
    4.3738   29.4947   26.3745 H   0  0  0  0  0  0
    4.7793   31.2432   26.4444 H   0  0  0  0  0  0
    0.2150   38.1820   26.2390 H   0  0  0  0  0  0
    2.8517   28.8802   24.6177 H   0  0  0  0  0  0
    1.7816   30.1193   23.8786 H   0  0  0  0  0  0
    1.3580   29.4003   25.4693 H   0  0  0  0  0  0
    6.3170   31.3940   21.7240 H   0  0  0  0  0  0
    6.9300   28.8900   22.2340 H   0  0  0  0  0  0
  1 26  2  0  0  0
  1 32  1  0  0  0
  1  7  1  0  0  0
  2 18  1  0  0  0
  2  3  1  0  0  0
  2  4  2  0  0  0
  3 33  1  0  0  0
  3 12  2  0  0  0
  4  9  1  0  0  0
  4 14  1  0  0  0
  5 13  1  0  0  0
  5 15  2  0  0  0
  5 16  1  0  0  0
  6 16  1  0  0  0
  6 19  1  0  0  0
  6 20  2  0  0  0
  7 21  2  0  0  0
  7 16  1  0  0  0
  8 34  1  0  0  0
  8 22  2  0  0  0
  8 26  1  0  0  0
  9 24  2  0  0  0
  9 23  1  0  0  0
 10 25  1  0  0  0
 10 11  2  0  0  0
 10 28  1  0  0  0
 11 35  1  0  0  0
 11 30  1  0  0  0
 12 13  1  0  0  0
 12 17  1  0  0  0
 13 14  2  0  0  0
 14 36  1  0  0  0
 15 19  1  0  0  0
 18 37  1  0  0  0
 19 38  1  0  0  0
 21 22  1  0  0  0
 21 31  1  0  0  0
 22 39  1  0  0  0
 23 25  1  0  0  0
 23 27  1  0  0  0
 25 40  1  0  0  0
 25 41  1  0  0  0
 26 42  1  0  0  0
 27 43  1  0  0  0
 27 44  1  0  0  0
 27 45  1  0  0  0
 28 29  1  0  0  0
 29 30  2  0  0  0
 29 46  1  0  0  0
 30 47  1  0  0  0
M  CHG  1  17  -1
M  END
> <s_m_source_file>
../wget-ligand-expo/6FJ_model.sdf

> <i_m_source_file_index>
1

> <i_lp_mmshare_version>
54117

> <s_epik_input>
RmMxW2NIXVtjSF1bY0hdW2NIXWMxLW4yYyg9TylbbkhdbmMyLWMoYyhbT0hdKVtjSF1jM1tPSF0pW2NIXWMzQyg9TylOKFtDSDNdKVtDSDJdYzRbY0hdW2NIXVtjSF1vNA==

> <s_epik_cmdline>
J2VwaWtfcHl0aG9uJywgJy1waHQnLCAnMC4wJywgJy1waCcsICc3LjQnLCAnLW50JywgJy1tYScsICcyMDAnLCAnLWltYWUnLCAnPGluZmlsZS5tYWU+JywgJy1vbWFlJywgJzxvdXRmaWxlLm1hZT4n

> <r_lp_tautomer_probability>
0.9999

> <r_epik_Ionization_Penalty>
0.309024

> <r_epik_Ionization_Penalty_Charging>
0.299825

> <r_epik_Ionization_Penalty_Neutral>
0.00919851

> <r_epik_State_Penalty>
0.566783

> <r_epik_Charging_Adjusted_Penalty>
0.866608

> <i_epik_Tot_Q>
-1

> <i_epik_Tot_abs_Q>
1

> <s_lp_Variant>
6FJ-1

$$$$
