6FF
                    3D
 Schrodinger Suite 2021-2.
 47 49  0  0  1  0            999 V2000
   -0.0290   32.1400   25.6660 C   0  0  0  0  0  0
   -1.2660   32.3600   25.0210 C   0  0  0  0  0  0
   -1.2880   33.0830   23.8310 C   0  0  0  0  0  0
   -0.1240   34.5120   22.1360 C   0  0  0  0  0  0
    0.2410   36.2630   20.8300 C   0  0  0  0  0  0
    1.1700   36.4410   23.0970 C   0  0  0  0  0  0
    2.5460   36.6280   22.9590 C   0  0  0  0  0  0
    3.2790   37.3000   23.9540 C   0  0  0  0  0  0
    0.5090   36.9680   24.2210 C   0  0  0  0  0  0
    6.0820   29.8850   22.9970 C   0  0  0  0  0  0
   -0.1040   33.6560   23.3330 C   0  0  0  0  0  0
    1.1170   33.4000   23.9570 C   0  0  0  0  0  0
    1.1540   32.7320   25.1710 C   0  0  0  0  0  0
   -0.0150   31.4370   26.8240 O   0  5  0  0  0  0
   -2.4490   33.2760   23.1520 O   0  0  0  0  0  0
   -0.7280   34.2500   20.9960 N   0  0  0  0  0  0
   -0.4840   35.3420   20.1530 N   0  0  0  0  0  0
    0.4650   35.7720   22.0710 N   0  0  0  0  0  0
    2.6150   37.7990   25.0740 C   0  0  0  0  0  0
    1.2390   37.6270   25.2140 C   0  0  0  0  0  0
    0.6260   37.3510   20.4110 O   0  0  0  0  0  0
    2.7570   32.4640   25.8940 S   0  0  0  0  0  0
    3.6430   33.4620   25.3670 O   0  0  0  0  0  0
    2.5040   32.3740   27.2970 O   0  0  0  0  0  0
    3.1750   30.9960   25.2390 N   0  0  3  0  0  0
    4.1070   30.9330   24.0940 C   0  0  0  0  0  0
    5.3130   30.0000   24.3140 C   0  0  0  0  0  0
    2.4670   29.7800   25.6800 C   0  0  0  0  0  0
    3.1420   36.1190   21.8630 F   0  0  0  0  0  0
   -2.1810   31.9730   25.4440 H   0  0  0  0  0  0
    4.3460   37.4280   23.8510 H   0  0  0  0  0  0
   -0.5620   36.8640   24.3170 H   0  0  0  0  0  0
    6.9483   29.2214   23.1350 H   0  0  0  0  0  0
    6.4293   30.8816   22.6870 H   0  0  0  0  0  0
    5.4215   29.4693   22.2218 H   0  0  0  0  0  0
    2.0370   33.7230   23.4930 H   0  0  0  0  0  0
   -3.3849   32.8355   23.5264 H   0  0  0  0  0  0
   -0.7772   35.5313   19.1098 H   0  0  0  0  0  0
    3.1710   38.3220   25.8380 H   0  0  0  0  0  0
    0.7360   38.0040   26.0920 H   0  0  0  0  0  0
    4.4643   31.9572   23.9113 H   0  0  0  0  0  0
    3.5286   30.5860   23.2251 H   0  0  0  0  0  0
    4.9657   29.0034   24.6240 H   0  0  0  0  0  0
    5.9735   30.4157   25.0892 H   0  0  0  0  0  0
    1.8230   30.0217   26.5384 H   0  0  0  0  0  0
    3.2006   29.0155   25.9757 H   0  0  0  0  0  0
    1.8493   29.3958   24.8549 H   0  0  0  0  0  0
  1 14  1  0  0  0
  1  2  2  0  0  0
  1 13  1  0  0  0
  2 30  1  0  0  0
  2  3  1  0  0  0
  3 11  2  0  0  0
  3 15  1  0  0  0
  4 11  1  0  0  0
  4 16  2  0  0  0
  4 18  1  0  0  0
  5 18  1  0  0  0
  5 17  1  0  0  0
  5 21  2  0  0  0
  6  9  1  0  0  0
  6  7  2  0  0  0
  6 18  1  0  0  0
  7  8  1  0  0  0
  7 29  1  0  0  0
  8 19  2  0  0  0
  8 31  1  0  0  0
  9 20  2  0  0  0
  9 32  1  0  0  0
 10 27  1  0  0  0
 10 33  1  0  0  0
 10 34  1  0  0  0
 10 35  1  0  0  0
 11 12  1  0  0  0
 12 13  2  0  0  0
 12 36  1  0  0  0
 13 22  1  0  0  0
 15 37  1  0  0  0
 16 17  1  0  0  0
 17 38  1  0  0  0
 19 20  1  0  0  0
 19 39  1  0  0  0
 20 40  1  0  0  0
 22 24  2  0  0  0
 22 23  2  0  0  0
 22 25  1  0  0  0
 25 28  1  0  0  0
 25 26  1  0  0  0
 26 27  1  0  0  0
 26 41  1  0  0  0
 26 42  1  0  0  0
 27 43  1  0  0  0
 27 44  1  0  0  0
 28 45  1  0  0  0
 28 46  1  0  0  0
 28 47  1  0  0  0
M  CHG  1  14  -1
M  END
> <s_m_source_file>
../wget-ligand-expo/6FF_model.sdf

> <i_m_source_file_index>
1

> <i_lp_mmshare_version>
54117

> <s_epik_input>
W0NIM11bQ0gyXVtDSDJdTihbQ0gzXSlTKD1PKSg9TyljMVtjSF1jKGMoW09IXSlbY0hdYzFbT0hdKS1jMm5bbkhdYyg9TyluMi1jM2MoRilbY0hdW2NIXVtjSF1bY0hdMw==

> <s_epik_cmdline>
J2VwaWtfcHl0aG9uJywgJy1waHQnLCAnMC4wJywgJy1waCcsICc3LjQnLCAnLW50JywgJy1tYScsICcyMDAnLCAnLWltYWUnLCAnPGluZmlsZS5tYWU+JywgJy1vbWFlJywgJzxvdXRmaWxlLm1hZT4n

> <r_lp_tautomer_probability>
0.9999

> <r_epik_Ionization_Penalty>
0.157859

> <r_epik_Ionization_Penalty_Charging>
0.146892

> <r_epik_Ionization_Penalty_Neutral>
0.0109668

> <r_epik_State_Penalty>
0.323449

> <r_epik_Charging_Adjusted_Penalty>
0.470341

> <i_epik_Tot_Q>
-1

> <i_epik_Tot_abs_Q>
1

> <s_lp_Variant>
6FF-1

$$$$
