6G7
                    3D
 Schrodinger Suite 2021-2.
 31 33  0  0  1  0            999 V2000
   -1.5020   11.8960   22.6250 C   0  0  0  0  0  0
   -2.7760   11.5690   23.1120 C   0  0  0  0  0  0
   -2.8820   10.7870   24.2410 C   0  0  0  0  0  0
   -1.8020    9.4500   26.0460 C   0  0  0  0  0  0
   -1.5450    7.6380   27.3300 C   0  0  0  0  0  0
   -0.2950    7.5730   25.2080 C   0  0  0  0  0  0
    1.0200    7.4080   25.5890 C   0  0  0  0  0  0
    1.9510    6.8630   24.7070 C   0  0  0  0  0  0
   -0.7190    7.1920   23.9420 C   0  0  0  0  0  0
   -1.7370   10.3590   24.9110 C   0  0  0  0  0  0
   -0.4680   10.6830   24.4140 C   0  0  0  0  0  0
   -0.3610   11.4700   23.2840 C   0  0  0  0  0  0
   -1.3740   12.6040   21.4730 O   0  0  0  0  0  0
   -4.1130   10.4730   24.7470 O   0  0  0  0  0  0
   -2.5640    9.6300   27.0970 N   0  0  0  0  0  0
   -2.3710    8.5030   27.9270 N   0  0  0  0  0  0
   -1.1610    8.1970   26.1510 N   0  0  0  0  0  0
    1.5330    6.4620   23.4330 C   0  0  0  0  0  0
    0.2030    6.6220   23.0770 C   0  0  0  0  0  0
   -1.1910    6.5610   27.7820 O   0  0  0  0  0  0
    1.3790    7.7530   26.8410 F   0  0  0  0  0  0
   -3.6620   11.9260   22.6080 H   0  0  0  0  0  0
    2.9840    6.7510   25.0030 H   0  0  0  0  0  0
   -1.7450    7.3360   23.6370 H   0  0  0  0  0  0
    0.4200   10.3200   24.9110 H   0  0  0  0  0  0
    0.6130   11.7530   22.9140 H   0  0  0  0  0  0
   -2.2705   12.9497   20.9374 H   0  0  0  0  0  0
   -5.0229   10.8058   24.2262 H   0  0  0  0  0  0
   -2.7841    8.2730   28.9202 H   0  0  0  0  0  0
    2.2380    6.0330   22.7360 H   0  0  0  0  0  0
   -0.1240    6.2940   22.1010 H   0  0  0  0  0  0
  1  2  2  0  0  0
  1 12  1  0  0  0
  1 13  1  0  0  0
  2  3  1  0  0  0
  2 22  1  0  0  0
  3 14  1  0  0  0
  3 10  2  0  0  0
  4 17  1  0  0  0
  4 15  2  0  0  0
  4 10  1  0  0  0
  5 20  2  0  0  0
  5 16  1  0  0  0
  5 17  1  0  0  0
  6  7  1  0  0  0
  6 17  1  0  0  0
  6  9  2  0  0  0
  7 21  1  0  0  0
  7  8  2  0  0  0
  8 23  1  0  0  0
  8 18  1  0  0  0
  9 24  1  0  0  0
  9 19  1  0  0  0
 10 11  1  0  0  0
 11 25  1  0  0  0
 11 12  2  0  0  0
 12 26  1  0  0  0
 13 27  1  0  0  0
 14 28  1  0  0  0
 15 16  1  0  0  0
 16 29  1  0  0  0
 18 30  1  0  0  0
 18 19  2  0  0  0
 19 31  1  0  0  0
M  END
> <s_m_source_file>
../wget-ligand-expo/6G7_model.sdf

> <i_m_source_file_index>
1

> <i_lp_mmshare_version>
54117

> <s_epik_input>
W09IXWMxW2NIXWMoW09IXSljKFtjSF1bY0hdMSktYzJuW25IXWMoPU8pbjItYzNjKEYpW2NIXVtjSF1bY0hdW2NIXTM=

> <s_epik_cmdline>
J2VwaWtfcHl0aG9uJywgJy1waHQnLCAnMC4wJywgJy1waCcsICc3LjQnLCAnLW50JywgJy1tYScsICcyMDAnLCAnLWltYWUnLCAnPGluZmlsZS5tYWU+JywgJy1vbWFlJywgJzxvdXRmaWxlLm1hZT4n

> <r_lp_tautomer_probability>
0.9999

> <r_epik_Ionization_Penalty>
0.0637579

> <r_epik_Ionization_Penalty_Charging>
5.92692e-05

> <r_epik_Ionization_Penalty_Neutral>
0.0636986

> <r_epik_State_Penalty>
0.0427793

> <r_epik_Charging_Adjusted_Penalty>
0.0428386

> <i_epik_Tot_Q>
0

> <i_epik_Tot_abs_Q>
0

> <s_lp_Variant>
6G7-1

$$$$
