6GW
                    3D
 Schrodinger Suite 2021-2.
 50 53  0  0  1  0            999 V2000
  -33.3160   -7.5230   24.7270 C   0  0  0  0  0  0
  -32.7820  -12.3650   23.0140 C   0  0  0  0  0  0
  -31.5120  -12.0450   23.5220 C   0  0  0  0  0  0
  -33.9430  -11.9340   23.6860 C   0  0  0  0  0  0
  -32.5030  -10.0530   26.6170 C   0  0  0  0  0  0
  -32.8810   -8.3560   27.9790 C   0  0  0  0  0  0
  -33.9710   -8.1790   25.7790 C   0  0  0  0  0  0
  -35.4390   -6.8920   23.7630 C   0  0  0  0  0  0
  -36.1470   -8.8510   26.9160 C   0  0  0  0  0  0
  -35.3290  -12.3140   23.3230 C   0  0  0  0  0  0
  -37.2190  -13.9100   23.5240 C   0  0  0  0  0  0
  -34.9180  -14.5340   24.3340 C   0  0  0  0  0  0
  -39.0900  -15.1110   26.5350 C   0  0  0  0  0  0
  -38.5120  -15.2110   25.2780 C   0  0  0  0  0  0
  -31.4150  -11.3170   24.7110 C   0  0  0  0  0  0
  -32.5720  -10.9120   25.4060 C   0  0  0  0  0  0
  -33.8230  -11.2360   24.8900 C   0  0  0  0  0  0
  -31.8170  -10.2850   27.7080 N   0  0  0  0  0  0
  -33.1720   -8.8380   26.7560 N   0  0  0  0  0  0
  -30.2020  -11.0240   25.2310 O   0  5  0  0  0  0
  -32.8970  -13.0350   21.8490 O   0  0  0  0  0  0
  -32.0550   -9.2300   28.5860 N   0  0  0  0  0  0
  -33.3010   -7.3140   28.4450 O   0  0  0  0  0  0
  -35.3790   -8.1760   25.8120 C   0  0  0  0  0  0
  -36.1090   -7.5410   24.7990 C   0  0  0  0  0  0
  -35.8020  -13.5390   23.7020 N   0  0  0  0  0  0
  -36.0620  -11.4870   22.8190 O   0  0  0  0  0  0
  -37.9350  -14.0850   24.8410 C   0  0  0  0  0  0
  -34.0430   -6.8890   23.7220 C   0  0  0  0  0  0
  -38.1140  -12.8170   26.0430 S   0  0  0  0  0  0
  -38.9970  -13.9030   27.1130 C   0  0  0  0  0  0
  -32.2370   -7.5090   24.6960 H   0  0  0  0  0  0
  -30.6200  -12.3580   22.9990 H   0  0  0  0  0  0
  -36.0010   -6.3900   22.9900 H   0  0  0  0  0  0
  -35.4423   -9.3011   27.6307 H   0  0  0  0  0  0
  -36.7884   -9.6363   26.4894 H   0  0  0  0  0  0
  -36.7717   -8.1090   27.4348 H   0  0  0  0  0  0
  -37.7360  -13.1216   22.9573 H   0  0  0  0  0  0
  -37.2829  -14.8597   22.9727 H   0  0  0  0  0  0
  -33.8983  -14.1273   24.4027 H   0  0  0  0  0  0
  -34.9066  -15.4518   23.7278 H   0  0  0  0  0  0
  -35.2892  -14.7657   25.3432 H   0  0  0  0  0  0
  -39.5800  -15.9460   27.0140 H   0  0  0  0  0  0
  -38.5260  -16.1230   24.6990 H   0  0  0  0  0  0
  -34.7130  -10.9440   25.4280 H   0  0  0  0  0  0
  -31.9952  -13.3747   21.3185 H   0  0  0  0  0  0
  -31.6972   -9.0305   29.6069 H   0  0  0  0  0  0
  -37.1890   -7.5540   24.8210 H   0  0  0  0  0  0
  -33.5270   -6.3950   22.9120 H   0  0  0  0  0  0
  -39.3990  -13.6390   28.0800 H   0  0  0  0  0  0
  1  7  2  0  0  0
  1 32  1  0  0  0
  1 29  1  0  0  0
  2  3  2  0  0  0
  2  4  1  0  0  0
  2 21  1  0  0  0
  3 15  1  0  0  0
  3 33  1  0  0  0
  4 17  2  0  0  0
  4 10  1  0  0  0
  5 19  1  0  0  0
  5 18  2  0  0  0
  5 16  1  0  0  0
  6 23  2  0  0  0
  6 22  1  0  0  0
  6 19  1  0  0  0
  7 24  1  0  0  0
  7 19  1  0  0  0
  8 25  1  0  0  0
  8 34  1  0  0  0
  8 29  2  0  0  0
  9 35  1  0  0  0
  9 36  1  0  0  0
  9 37  1  0  0  0
  9 24  1  0  0  0
 10 26  1  0  0  0
 10 27  2  0  0  0
 11 26  1  0  0  0
 11 28  1  0  0  0
 11 38  1  0  0  0
 11 39  1  0  0  0
 12 40  1  0  0  0
 12 41  1  0  0  0
 12 42  1  0  0  0
 12 26  1  0  0  0
 13 31  2  0  0  0
 13 43  1  0  0  0
 13 14  1  0  0  0
 14 44  1  0  0  0
 14 28  2  0  0  0
 15 20  1  0  0  0
 15 16  2  0  0  0
 16 17  1  0  0  0
 17 45  1  0  0  0
 18 22  1  0  0  0
 21 46  1  0  0  0
 22 47  1  0  0  0
 24 25  2  0  0  0
 25 48  1  0  0  0
 28 30  1  0  0  0
 29 49  1  0  0  0
 30 31  1  0  0  0
 31 50  1  0  0  0
M  CHG  1  20  -1
M  END
> <s_m_source_file>
../wget-ligand-expo/6GW_model.sdf

> <i_m_source_file_index>
1

> <i_lp_mmshare_version>
54117

> <s_epik_input>
W0NIM11jMVtjSF1bY0hdW2NIXVtjSF1jMS1uMmMoPU8pW25IXW5jMi1jKGMoW09IXSlbY0hdYzNbT0hdKVtjSF1jM0MoPU8pTihbQ0gzXSlbQ0gyXWM0W2NIXVtjSF1bY0hdczQ=

> <s_epik_cmdline>
J2VwaWtfcHl0aG9uJywgJy1waHQnLCAnMC4wJywgJy1waCcsICc3LjQnLCAnLW50JywgJy1tYScsICcyMDAnLCAnLWltYWUnLCAnPGluZmlsZS5tYWU+JywgJy1vbWFlJywgJzxvdXRmaWxlLm1hZT4n

> <r_lp_tautomer_probability>
0.9999

> <r_epik_Ionization_Penalty>
0.305939

> <r_epik_Ionization_Penalty_Charging>
0.296495

> <r_epik_Ionization_Penalty_Neutral>
0.00944384

> <r_epik_State_Penalty>
0.567485

> <r_epik_Charging_Adjusted_Penalty>
0.86398

> <i_epik_Tot_Q>
-1

> <i_epik_Tot_abs_Q>
1

> <s_lp_Variant>
6GW-1

$$$$
