6GC
                    3D
 Schrodinger Suite 2021-2.
 49 51  0  0  1  0            999 V2000
  -33.5650   -7.4340   24.6350 C   0  0  0  0  0  0
  -33.0660  -12.2080   23.1380 C   0  0  0  0  0  0
  -31.7760  -11.8780   23.5970 C   0  0  0  0  0  0
  -34.2090  -11.7660   23.8480 C   0  0  0  0  0  0
  -32.6580   -9.8240   26.6690 C   0  0  0  0  0  0
  -33.0320   -8.1090   28.0150 C   0  0  0  0  0  0
  -34.1320   -7.9770   25.8030 C   0  0  0  0  0  0
  -35.7430   -6.7690   23.8550 C   0  0  0  0  0  0
  -35.6160  -12.1450   23.5730 C   0  0  0  0  0  0
  -38.2210  -13.4310   25.2280 C   0  0  0  0  0  0
  -39.7220  -15.0460   26.3570 C   0  0  0  0  0  0
  -31.6190  -11.1360   24.7690 C   0  0  0  0  0  0
  -32.7590  -10.6910   25.4740 C   0  0  0  0  0  0
  -34.0320  -11.0380   25.0260 C   0  0  0  0  0  0
  -31.9660  -10.0570   27.7600 N   0  0  0  0  0  0
  -33.3180   -8.6030   26.7860 N   0  0  0  0  0  0
  -30.3880  -10.8200   25.2410 O   0  5  0  0  0  0
  -33.2280  -12.9360   22.0190 O   0  0  0  0  0  0
  -32.1960   -8.9860   28.6270 N   0  0  0  0  0  0
  -33.4470   -7.0460   28.4770 O   0  0  0  0  0  0
  -35.5250   -7.9130   25.9730 C   0  0  0  0  0  0
  -36.3320   -7.3090   25.0040 C   0  0  0  0  0  0
  -36.0820  -13.3660   23.9900 N   0  0  0  0  0  0
  -36.3960  -11.3110   23.1270 O   0  0  0  0  0  0
  -37.5080  -13.7120   23.8880 C   0  0  0  0  0  0
  -34.3640   -6.8350   23.6640 C   0  0  0  0  0  0
  -35.1850  -14.4070   24.5200 C   0  0  0  0  0  0
  -39.6140  -14.0730   25.1920 C   0  0  0  0  0  0
  -36.0790   -8.4300   27.0850 F   0  0  0  0  0  0
  -32.4960   -7.4820   24.4900 H   0  0  0  0  0  0
  -30.9070  -12.1990   23.0420 H   0  0  0  0  0  0
  -36.3640   -6.2960   23.1080 H   0  0  0  0  0  0
  -37.6340  -13.8610   26.0529 H   0  0  0  0  0  0
  -38.3152  -12.3446   25.3725 H   0  0  0  0  0  0
  -40.7155  -15.5182   26.3494 H   0  0  0  0  0  0
  -39.5816  -14.5024   27.3029 H   0  0  0  0  0  0
  -38.9470  -15.8207   26.2607 H   0  0  0  0  0  0
  -34.8970  -10.7390   25.6000 H   0  0  0  0  0  0
  -32.3487  -13.2855   21.4581 H   0  0  0  0  0  0
  -31.8266   -8.7770   29.6418 H   0  0  0  0  0  0
  -37.4020   -7.2600   25.1410 H   0  0  0  0  0  0
  -37.9762  -13.1077   23.0970 H   0  0  0  0  0  0
  -37.6097  -14.7794   23.6426 H   0  0  0  0  0  0
  -33.9180   -6.4250   22.7700 H   0  0  0  0  0  0
  -34.1539  -14.0246   24.5448 H   0  0  0  0  0  0
  -35.2312  -15.2952   23.8727 H   0  0  0  0  0  0
  -35.5000  -14.6787   25.5383 H   0  0  0  0  0  0
  -40.3811  -13.2898   25.2823 H   0  0  0  0  0  0
  -39.7467  -14.6081   24.2401 H   0  0  0  0  0  0
  1  7  2  0  0  0
  1 30  1  0  0  0
  1 26  1  0  0  0
  2  3  2  0  0  0
  2  4  1  0  0  0
  2 18  1  0  0  0
  3 12  1  0  0  0
  3 31  1  0  0  0
  4 14  2  0  0  0
  4  9  1  0  0  0
  5 16  1  0  0  0
  5 15  2  0  0  0
  5 13  1  0  0  0
  6 20  2  0  0  0
  6 19  1  0  0  0
  6 16  1  0  0  0
  7 21  1  0  0  0
  7 16  1  0  0  0
  8 22  1  0  0  0
  8 32  1  0  0  0
  8 26  2  0  0  0
  9 23  1  0  0  0
  9 24  2  0  0  0
 10 33  1  0  0  0
 10 34  1  0  0  0
 10 25  1  0  0  0
 10 28  1  0  0  0
 11 35  1  0  0  0
 11 36  1  0  0  0
 11 37  1  0  0  0
 11 28  1  0  0  0
 12 17  1  0  0  0
 12 13  2  0  0  0
 13 14  1  0  0  0
 14 38  1  0  0  0
 15 19  1  0  0  0
 18 39  1  0  0  0
 19 40  1  0  0  0
 21 29  1  0  0  0
 21 22  2  0  0  0
 22 41  1  0  0  0
 23 27  1  0  0  0
 23 25  1  0  0  0
 25 42  1  0  0  0
 25 43  1  0  0  0
 26 44  1  0  0  0
 27 45  1  0  0  0
 27 46  1  0  0  0
 27 47  1  0  0  0
 28 48  1  0  0  0
 28 49  1  0  0  0
M  CHG  1  17  -1
M  END
> <s_m_source_file>
../wget-ligand-expo/6GC_model.sdf

> <i_m_source_file_index>
1

> <i_lp_mmshare_version>
54117

> <s_epik_input>
RmMxW2NIXVtjSF1bY0hdW2NIXWMxLW4yYyg9TylbbkhdbmMyLWMoYyhbT0hdKVtjSF1jM1tPSF0pW2NIXWMzQyg9TylOKFtDSDNdKVtDSDJdW0NIMl1bQ0gyXVtDSDNd

> <s_epik_cmdline>
J2VwaWtfcHl0aG9uJywgJy1waHQnLCAnMC4wJywgJy1waCcsICc3LjQnLCAnLW50JywgJy1tYScsICcyMDAnLCAnLWltYWUnLCAnPGluZmlsZS5tYWU+JywgJy1vbWFlJywgJzxvdXRmaWxlLm1hZT4n

> <r_lp_tautomer_probability>
0.9999

> <r_epik_Ionization_Penalty>
0.327294

> <r_epik_Ionization_Penalty_Charging>
0.31924

> <r_epik_Ionization_Penalty_Neutral>
0.00805342

> <r_epik_State_Penalty>
0.567742

> <r_epik_Charging_Adjusted_Penalty>
0.886982

> <i_epik_Tot_Q>
-1

> <i_epik_Tot_abs_Q>
1

> <s_lp_Variant>
6GC-1

$$$$
