70M
                    3D
 Schrodinger Suite 2021-2.
 55 58  0  0  1  0            999 V2000
    0.5100   33.7950   25.3510 C   0  0  0  0  0  0
   -0.6870   33.4170   26.0550 C   0  0  0  0  0  0
    1.6270   33.4200   26.2310 C   0  0  0  0  0  0
    1.0540   32.8550   27.3720 C   0  0  0  0  0  0
    3.1190   33.6010   25.9780 C   0  0  0  0  0  0
   -0.8540   34.6200   23.4870 C   0  0  0  0  0  0
   -2.0390   34.2480   24.2000 C   0  0  0  0  0  0
    3.5660   32.9680   24.6450 C   0  0  0  0  0  0
   -0.9630   35.2150   22.1870 C   0  0  0  0  0  0
    3.5350   31.4380   24.7380 C   0  0  0  0  0  0
    4.2280   30.8200   23.5120 C   0  0  0  0  0  0
    6.4120   30.3520   24.5190 C   0  0  0  0  0  0
    7.7130   31.3930   22.1280 C   0  0  0  0  0  0
    7.8740   30.8140   24.5420 C   0  0  0  0  0  0
   10.6490   31.1530   24.2650 C   0  0  0  0  0  0
   11.9530   30.7140   21.7920 C   0  0  0  0  0  0
    0.4180   34.3960   24.0660 C   0  0  0  0  0  0
   -0.3110   32.8600   27.2560 N   0  0  0  0  0  0
   -1.9520   33.6540   25.4670 C   0  0  0  0  0  0
   -3.2550   34.4690   23.6440 O   0  5  0  0  0  0
   -1.0640   35.6660   21.1500 N   0  0  0  0  0  0
    5.6700   31.1410   23.5010 N   0  3  0  0  0  0
    6.2370   30.9450   22.1400 C   0  0  0  0  0  0
    8.4620   30.6430   23.1780 N   0  0  0  0  0  0
    9.8800   30.7960   23.1100 C   0  0  0  0  0  0
   10.5600   30.5800   21.8710 C   0  0  0  0  0  0
   12.0390   31.2850   24.1840 C   0  0  0  0  0  0
   12.7040   31.0650   22.9480 C   0  0  0  0  0  0
   14.1280   31.1880   22.8760 C   0  0  0  0  0  0
   15.2590   31.2660   22.8340 N   0  0  0  0  0  0
    1.6040   32.4720   28.2190 H   0  0  0  0  0  0
    3.3574   34.6743   25.9429 H   0  0  0  0  0  0
    3.6889   33.1252   26.7897 H   0  0  0  0  0  0
    4.5895   33.3008   24.4176 H   0  0  0  0  0  0
    2.8864   33.3007   23.8466 H   0  0  0  0  0  0
    4.0591   31.1154   25.6497 H   0  0  0  0  0  0
    2.4908   31.0939   24.7741 H   0  0  0  0  0  0
    4.1103   29.7266   23.5367 H   0  0  0  0  0  0
    3.7712   31.2173   22.5936 H   0  0  0  0  0  0
    6.3692   29.2831   24.2628 H   0  0  0  0  0  0
    5.9620   30.5097   25.5103 H   0  0  0  0  0  0
    8.1516   31.1838   21.1412 H   0  0  0  0  0  0
    7.7703   32.4721   22.3334 H   0  0  0  0  0  0
    7.9192   31.8734   24.8345 H   0  0  0  0  0  0
    8.4384   30.2091   25.2670 H   0  0  0  0  0  0
   10.1500   31.3220   25.2080 H   0  0  0  0  0  0
   12.4570   30.5500   20.8510 H   0  0  0  0  0  0
    1.3140   34.6800   23.5340 H   0  0  0  0  0  0
   -1.0766   32.4982   27.9581 H   0  0  0  0  0  0
   -2.8520   33.3770   25.9950 H   0  0  0  0  0  0
    5.6661   31.5441   21.4153 H   0  0  0  0  0  0
    6.1744   29.8814   21.8665 H   0  0  0  0  0  0
    9.9960   30.3120   20.9900 H   0  0  0  0  0  0
   12.6070   31.5540   25.0620 H   0  0  0  0  0  0
    5.7780   32.2019   23.7707 H   0  0  0  0  0  0
  1  2  2  0  0  0
  1  3  1  0  0  0
  1 17  1  0  0  0
  2 18  1  0  0  0
  2 19  1  0  0  0
  3  4  2  0  0  0
  3  5  1  0  0  0
  4 31  1  0  0  0
  4 18  1  0  0  0
  5 32  1  0  0  0
  5 33  1  0  0  0
  5  8  1  0  0  0
  6 17  2  0  0  0
  6  7  1  0  0  0
  6  9  1  0  0  0
  7 19  2  0  0  0
  7 20  1  0  0  0
  8 10  1  0  0  0
  8 34  1  0  0  0
  8 35  1  0  0  0
  9 21  3  0  0  0
 10 36  1  0  0  0
 10 37  1  0  0  0
 10 11  1  0  0  0
 11 38  1  0  0  0
 11 39  1  0  0  0
 11 22  1  0  0  0
 12 14  1  0  0  0
 12 40  1  0  0  0
 12 41  1  0  0  0
 12 22  1  0  0  0
 13 23  1  0  0  0
 13 24  1  0  0  0
 13 42  1  0  0  0
 13 43  1  0  0  0
 14 44  1  0  0  0
 14 45  1  0  0  0
 14 24  1  0  0  0
 15 46  1  0  0  0
 15 25  2  0  0  0
 15 27  1  0  0  0
 16 26  2  0  0  0
 16 28  1  0  0  0
 16 47  1  0  0  0
 17 48  1  0  0  0
 18 49  1  0  0  0
 19 50  1  0  0  0
 22 23  1  0  0  0
 22 55  1  0  0  0
 23 51  1  0  0  0
 23 52  1  0  0  0
 24 25  1  0  0  0
 25 26  1  0  0  0
 26 53  1  0  0  0
 27 54  1  0  0  0
 27 28  2  0  0  0
 28 29  1  0  0  0
 29 30  3  0  0  0
M  CHG  2  20  -1  22   1
M  END
> <s_m_source_file>
../wget-ligand-expo/70M_model.sdf

> <i_m_source_file_index>
1

> <i_lp_mmshare_version>
54117

> <s_epik_input>
TiNDYyhbY0hdMSljKFtPSF0pW2NIXWMoYzEyKVtuSF1bY0hdYzJbQ0gyXVtDSDJdW0NIMl1bQ0gyXU4zW0NIMl1bQ0gyXU4oW0NIMl1bQ0gyXTMpYzRbY0hdW2NIXWMoQyNOKVtjSF1bY0hdNA==

> <s_epik_cmdline>
J2VwaWtfcHl0aG9uJywgJy1waHQnLCAnMC4wJywgJy1waCcsICc3LjQnLCAnLW50JywgJy1tYScsICcyMDAnLCAnLWltYWUnLCAnPGluZmlsZS5tYWU+JywgJy1vbWFlJywgJzxvdXRmaWxlLm1hZT4n

> <r_epik_Ionization_Penalty>
0.500401

> <r_epik_Ionization_Penalty_Charging>
0.500401

> <r_epik_Ionization_Penalty_Neutral>
2.14751e-08

> <r_epik_State_Penalty>
0.486507

> <r_epik_Charging_Adjusted_Penalty>
0.986908

> <i_epik_Tot_Q>
0

> <i_epik_Tot_abs_Q>
2

> <s_lp_Variant>
70M-1

$$$$
