70O
                    3D
 Schrodinger Suite 2021-2.
 70 73  0  0  1  0            999 V2000
    1.4890    8.3780   26.6840 C   0  0  0  0  0  0
    0.1340    8.7010   26.4590 C   0  0  0  0  0  0
   -0.4820    8.2820   25.2730 C   0  0  0  0  0  0
    2.2320    6.4010   23.4750 C   0  0  1  0  0  0
   -0.8320    8.7460   28.7150 C   0  0  0  0  0  0
   -1.2080   10.6330   27.1890 C   0  0  0  0  0  0
   -1.0620   11.3410   25.8850 C   0  0  0  0  0  0
    0.2120   11.6930   25.4110 C   0  0  0  0  0  0
   -2.0820   12.1730   23.8220 C   0  0  0  0  0  0
   -2.2020   11.5970   25.0750 C   0  0  0  0  0  0
    1.4780   12.7010   23.3410 C   0  0  0  0  0  0
    2.9260   12.6630   23.7760 C   0  0  0  0  0  0
    4.7330   14.0110   25.1720 C   0  0  0  0  0  0
    3.8660    3.8420   20.6660 C   0  0  0  0  0  0
    5.8230   13.7670   24.1080 C   0  0  0  0  0  0
    5.0240   15.4130   25.7290 C   0  0  0  0  0  0
    4.9090   13.0020   26.3260 C   0  0  0  0  0  0
    0.2300    7.5690   24.3260 C   0  0  0  0  0  0
    1.5640    7.2530   24.5400 C   0  0  0  0  0  0
    2.1930    7.6470   25.7320 C   0  0  0  0  0  0
   -0.6310    9.4090   27.4180 N   0  0  0  0  0  0
   -1.8630   11.1510   28.0730 O   0  0  0  0  0  0
   -3.4450   11.3380   25.5400 O   0  0  0  0  0  0
   -0.8160   12.4980   23.3250 C   0  0  0  0  0  0
    0.3340   12.2520   24.1280 C   0  0  0  0  0  0
    1.0030   13.1440   22.2060 N   0  0  0  0  0  0
   -0.3890   13.0420   22.1370 N   0  0  0  0  0  0
    3.2810   13.9320   24.6000 C   0  0  0  0  0  0
    3.6850    6.7500   23.1160 C   0  0  0  0  0  0
    4.0790    5.9200   21.8810 C   0  0  0  0  0  0
    3.7910    4.4620   22.0000 N   0  3  1  0  0  0
    2.5100    4.0600   22.6300 C   0  0  0  0  0  0
    2.1690    4.9110   23.8610 C   0  0  0  0  0  0
    1.9780    8.6970   27.5920 H   0  0  0  0  0  0
   -1.5210    8.5180   25.0970 H   0  0  0  0  0  0
    1.6396    6.6381   22.5790 H   0  0  0  0  0  0
   -0.3013    7.7825   28.7204 H   0  0  0  0  0  0
   -1.9064    8.5737   28.8761 H   0  0  0  0  0  0
   -0.4387    9.3858   29.5187 H   0  0  0  0  0  0
    1.0870   11.5360   26.0250 H   0  0  0  0  0  0
   -2.9630   12.3710   23.2300 H   0  0  0  0  0  0
    3.0984   11.7730   24.3990 H   0  0  0  0  0  0
    3.5745   12.6206   22.8885 H   0  0  0  0  0  0
    4.8109    4.1285   20.1811 H   0  0  0  0  0  0
    3.0201    4.1870   20.0533 H   0  0  0  0  0  0
    3.8230    2.7475   20.7674 H   0  0  0  0  0  0
    6.8155   13.8369   24.5771 H   0  0  0  0  0  0
    5.7379   14.5250   23.3154 H   0  0  0  0  0  0
    5.6928   12.7652   23.6728 H   0  0  0  0  0  0
    6.0497   15.4445   26.1253 H   0  0  0  0  0  0
    4.3121   15.6421   26.5356 H   0  0  0  0  0  0
    4.9186   16.1561   24.9249 H   0  0  0  0  0  0
    5.9345   13.0688   26.7182 H   0  0  0  0  0  0
    4.7244   11.9835   25.9538 H   0  0  0  0  0  0
    4.1936   13.2344   27.1286 H   0  0  0  0  0  0
   -0.2560    7.2560   23.4140 H   0  0  0  0  0  0
    3.2250    7.3820   25.9100 H   0  0  0  0  0  0
   -4.3219   11.5389   24.9070 H   0  0  0  0  0  0
    1.6869   13.5380   21.4399 H   0  0  0  0  0  0
    3.1585   14.8248   23.9693 H   0  0  0  0  0  0
    2.6119   14.0032   25.4702 H   0  0  0  0  0  0
    3.7595    7.8245   22.8925 H   0  0  0  0  0  0
    4.3412    6.5056   23.9644 H   0  0  0  0  0  0
    5.1577    6.0692   21.7256 H   0  0  0  0  0  0
    3.5246    6.3347   21.0262 H   0  0  0  0  0  0
    1.6924    4.1729   21.9028 H   0  0  0  0  0  0
    2.5729    3.0097   22.9508 H   0  0  0  0  0  0
    2.8939    4.7092   24.6634 H   0  0  0  0  0  0
    1.1558    4.6657   24.2120 H   0  0  0  0  0  0
    4.5632    4.0953   22.6923 H   0  0  0  0  0  0
  1 34  1  0  0  0
  1  2  1  0  0  0
  1 20  2  0  0  0
  2 21  1  0  0  0
  2  3  2  0  0  0
  3 35  1  0  0  0
  3 18  1  0  0  0
  4 33  1  0  0  0
  4 19  1  0  0  0
  4 36  1  0  0  0
  4 29  1  0  0  0
  5 37  1  0  0  0
  5 38  1  0  0  0
  5 39  1  0  0  0
  5 21  1  0  0  0
  6 21  1  0  0  0
  6 22  2  0  0  0
  6  7  1  0  0  0
  7  8  2  0  0  0
  7 10  1  0  0  0
  8 40  1  0  0  0
  8 25  1  0  0  0
  9 10  2  0  0  0
  9 41  1  0  0  0
  9 24  1  0  0  0
 10 23  1  0  0  0
 11 12  1  0  0  0
 11 25  2  0  0  0
 11 26  1  0  0  0
 12 28  1  0  0  0
 12 42  1  0  0  0
 12 43  1  0  0  0
 13 16  1  0  0  0
 13 17  1  0  0  0
 13 15  1  0  0  0
 13 28  1  0  0  0
 14 31  1  0  0  0
 14 44  1  0  0  0
 14 45  1  0  0  0
 14 46  1  0  0  0
 15 47  1  0  0  0
 15 48  1  0  0  0
 15 49  1  0  0  0
 16 50  1  0  0  0
 16 51  1  0  0  0
 16 52  1  0  0  0
 17 53  1  0  0  0
 17 54  1  0  0  0
 17 55  1  0  0  0
 18 19  2  0  0  0
 18 56  1  0  0  0
 19 20  1  0  0  0
 20 57  1  0  0  0
 23 58  1  0  0  0
 24 25  1  0  0  0
 24 27  2  0  0  0
 26 59  1  0  0  0
 26 27  1  0  0  0
 28 60  1  0  0  0
 28 61  1  0  0  0
 29 62  1  0  0  0
 29 63  1  0  0  0
 29 30  1  0  0  0
 30 31  1  0  0  0
 30 64  1  0  0  0
 30 65  1  0  0  0
 31 32  1  0  0  0
 31 70  1  0  0  0
 32 33  1  0  0  0
 32 66  1  0  0  0
 32 67  1  0  0  0
 33 68  1  0  0  0
 33 69  1  0  0  0
M  CHG  1  31   1
M  END
> <s_m_source_file>
../wget-ligand-expo/70O_model.sdf

> <i_m_source_file_index>
1

> <i_lp_mmshare_version>
54117

> <s_epik_input>
W0NIMl0xW0NIMl1OKFtDSDNdKVtDSDJdW0NIMl1bQ0hdMWMoW2NIXVtjSF0yKVtjSF1bY0hdYzJOKFtDSDNdKUMoPU8pYyhjKFtjSF0zKVtPSF0pW2NIXWMoYzM0KWMoW25IXW40KVtDSDJdW0NIMl1DKFtDSDNdKShbQ0gzXSlbQ0gzXQ==

> <s_epik_cmdline>
J2VwaWtfcHl0aG9uJywgJy1waHQnLCAnMC4wJywgJy1waCcsICc3LjQnLCAnLW50JywgJy1tYScsICcyMDAnLCAnLWltYWUnLCAnPGluZmlsZS5tYWU+JywgJy1vbWFlJywgJzxvdXRmaWxlLm1hZT4n

> <r_epik_Ionization_Penalty>
0.0627109

> <r_epik_Ionization_Penalty_Charging>
0.00497569

> <r_epik_Ionization_Penalty_Neutral>
0.0577352

> <r_epik_State_Penalty>
0.0498826

> <r_epik_Charging_Adjusted_Penalty>
0.0548583

> <i_epik_Tot_Q>
1

> <i_epik_Tot_abs_Q>
1

> <s_lp_Variant>
70O-1

$$$$
