72K
                    3D
 Schrodinger Suite 2021-2.
 66 71  0  0  1  0            999 V2000
   12.5960   14.2870   27.8290 C   0  0  0  0  0  0
   13.2460   14.0870   26.6270 C   0  0  0  0  0  0
    4.8710   15.3240   26.1120 C   0  0  0  0  0  0
   11.2180   14.3310   27.8560 C   0  0  0  0  0  0
    6.2380   15.1780   26.1190 C   0  0  0  0  0  0
    0.5020   12.4870   24.0970 C   0  0  0  0  0  0
   12.5050   13.9290   25.4740 C   0  0  0  0  0  0
    4.0550   14.3890   25.5120 C   0  0  0  0  0  0
    1.8400   12.7650   23.9040 C   0  0  0  0  0  0
    9.0980   14.2250   26.7380 C   0  0  0  0  0  0
    2.4140   10.7240   25.0410 C   0  0  0  0  0  0
    9.0930   13.8820   24.4230 C   0  0  0  0  0  0
   10.4830   14.1790   26.6970 C   0  0  0  0  0  0
    6.0830   13.1570   24.9360 C   0  0  0  0  0  0
    6.8970   14.1150   25.5390 C   0  0  0  0  0  0
    8.3600   14.0630   25.5740 C   0  0  0  0  0  0
    0.1330   11.3440   24.7760 C   0  0  0  0  0  0
   11.1210   13.9750   25.4840 C   0  0  0  0  0  0
    4.7010   13.3140   24.9350 C   0  0  0  0  0  0
    2.7910   11.8780   24.3780 C   0  0  0  0  0  0
    1.0720   10.4400   25.2610 C   0  0  0  0  0  0
    6.2700   11.9270   24.2490 C   0  0  0  0  0  0
   -1.3100   11.0790   25.0200 C   0  0  0  0  0  0
    2.0680    8.5760   27.7690 C   0  0  0  0  0  0
    0.6470    6.9710   26.5550 C   0  0  0  0  0  0
    2.8610    7.4230   28.3570 C   0  0  0  0  0  0
    1.3990    5.8190   27.2130 C   0  0  0  0  0  0
    1.5080    8.2320   26.4010 C   0  0  1  0  0  0
    1.9780    6.2050   28.5600 C   0  0  1  0  0  0
    7.5370   11.2230   23.9390 C   0  0  0  0  0  0
   10.4290   13.8270   24.3440 N   0  0  0  0  0  0
    5.1110   11.3730   23.8670 N   0  0  0  0  0  0
    4.1590   12.2310   24.2810 N   0  0  0  0  0  0
   -2.2120   11.5000   24.0760 N   0  0  0  0  0  0
    0.5930    9.2900   25.9520 N   0  0  0  0  0  0
   -1.6240   10.5480   26.0780 O   0  0  0  0  0  0
    2.7960    5.1220   29.0110 O   0  0  0  0  0  0
   13.1620   14.4080   28.7410 H   0  0  0  0  0  0
   14.3250   14.0550   26.5900 H   0  0  0  0  0  0
    4.4280   16.1880   26.5860 H   0  0  0  0  0  0
   10.7070   14.4860   28.7950 H   0  0  0  0  0  0
    6.8290   15.9390   26.6060 H   0  0  0  0  0  0
   -0.2520   13.1610   23.7180 H   0  0  0  0  0  0
   13.0180   13.7650   24.5380 H   0  0  0  0  0  0
    2.9800   14.4910   25.4940 H   0  0  0  0  0  0
    2.1420   13.6650   23.3890 H   0  0  0  0  0  0
    8.5920   14.3870   27.6780 H   0  0  0  0  0  0
    3.1700   10.0370   25.3910 H   0  0  0  0  0  0
    8.5410   13.7750   23.5010 H   0  0  0  0  0  0
    1.2278    8.8207   28.4355 H   0  0  0  0  0  0
    2.7213    9.4548   27.6647 H   0  0  0  0  0  0
    0.3147    6.6663   25.5516 H   0  0  0  0  0  0
   -0.2284    7.2344   27.1668 H   0  0  0  0  0  0
    3.6804    7.1554   27.6736 H   0  0  0  0  0  0
    3.2780    7.7231   29.3297 H   0  0  0  0  0  0
    0.7125    4.9734   27.3669 H   0  0  0  0  0  0
    2.2287    5.5040   26.5631 H   0  0  0  0  0  0
    2.3297    8.1367   25.6759 H   0  0  0  0  0  0
    1.2020    6.3786   29.3201 H   0  0  0  0  0  0
    8.3855   11.8105   24.3197 H   0  0  0  0  0  0
    7.6331   11.1036   22.8497 H   0  0  0  0  0  0
    7.5327   10.2325   24.4175 H   0  0  0  0  0  0
   -1.8569   11.9698   23.1469 H   0  0  0  0  0  0
   -3.2904   11.3677   24.2481 H   0  0  0  0  0  0
   -0.4860    9.2035   26.1476 H   0  0  0  0  0  0
    3.3177    5.1919   29.9769 H   0  0  0  0  0  0
  1  4  1  0  0  0
  1 38  1  0  0  0
  1  2  2  0  0  0
  2 39  1  0  0  0
  2  7  1  0  0  0
  3  5  1  0  0  0
  3 40  1  0  0  0
  3  8  2  0  0  0
  4 41  1  0  0  0
  4 13  2  0  0  0
  5 42  1  0  0  0
  5 15  2  0  0  0
  6 17  1  0  0  0
  6 43  1  0  0  0
  6  9  2  0  0  0
  7 18  2  0  0  0
  7 44  1  0  0  0
  8 45  1  0  0  0
  8 19  1  0  0  0
  9 20  1  0  0  0
  9 46  1  0  0  0
 10 47  1  0  0  0
 10 13  1  0  0  0
 10 16  2  0  0  0
 11 21  1  0  0  0
 11 48  1  0  0  0
 11 20  2  0  0  0
 12 16  1  0  0  0
 12 49  1  0  0  0
 12 31  2  0  0  0
 13 18  1  0  0  0
 14 15  1  0  0  0
 14 19  2  0  0  0
 14 22  1  0  0  0
 15 16  1  0  0  0
 17 23  1  0  0  0
 17 21  2  0  0  0
 18 31  1  0  0  0
 19 33  1  0  0  0
 20 33  1  0  0  0
 21 35  1  0  0  0
 22 30  1  0  0  0
 22 32  2  0  0  0
 23 36  2  0  0  0
 23 34  1  0  0  0
 24 26  1  0  0  0
 24 50  1  0  0  0
 24 51  1  0  0  0
 24 28  1  0  0  0
 25 27  1  0  0  0
 25 52  1  0  0  0
 25 53  1  0  0  0
 25 28  1  0  0  0
 26 29  1  0  0  0
 26 54  1  0  0  0
 26 55  1  0  0  0
 27 29  1  0  0  0
 27 56  1  0  0  0
 27 57  1  0  0  0
 28 58  1  0  0  0
 28 35  1  0  0  0
 29 37  1  0  0  0
 29 59  1  0  0  0
 30 60  1  0  0  0
 30 61  1  0  0  0
 30 62  1  0  0  0
 32 33  1  0  0  0
 34 63  1  0  0  0
 34 64  1  0  0  0
 35 65  1  0  0  0
 37 66  1  0  0  0
M  END
> <s_m_source_file>
../wget-ligand-expo/72K_model.sdf

> <i_m_source_file_index>
1

> <i_lp_mmshare_version>
54117

> <s_epik_input>
W2NIXTFbY0hdW2NIXVtjSF1jKGMxMiluW2NIXWMoW2NIXTIpLWMzW2NIXVtjSF1bY0hdYyhjMzQpbihuYzRbQ0gzXSktYyhbY0hdW2NIXWM1Qyg9TylbTkgyXSlbY0hdYzVbTkhdW0NASF02W0NIMl1bQ0gyXVtDQEhdKFtPSF0pW0NIMl1bQ0gyXTY=

> <s_epik_cmdline>
J2VwaWtfcHl0aG9uJywgJy1waHQnLCAnMC4wJywgJy1waCcsICc3LjQnLCAnLW50JywgJy1tYScsICcyMDAnLCAnLWltYWUnLCAnPGluZmlsZS5tYWU+JywgJy1vbWFlJywgJzxvdXRmaWxlLm1hZT4n

> <r_lp_tautomer_probability>
1

> <r_epik_Ionization_Penalty>
0.000844646

> <r_epik_Ionization_Penalty_Charging>
0

> <r_epik_Ionization_Penalty_Neutral>
0.000844646

> <r_epik_State_Penalty>
-0

> <r_epik_Charging_Adjusted_Penalty>
0

> <i_epik_Tot_Q>
0

> <i_epik_Tot_abs_Q>
0

> <s_lp_Variant>
72K-1

$$$$
