72Y
                    3D
 Schrodinger Suite 2021-2.
 34 36  0  0  1  0            999 V2000
   -1.3500   11.2760   24.7030 C   0  0  0  0  0  0
    1.9780    9.6790   26.5220 C   0  0  0  0  0  0
    0.6840   10.1570   26.1140 C   0  0  0  0  0  0
   -1.6430   10.6720   25.8880 N   0  0  0  0  0  0
    0.8600   10.8480   24.9170 C   0  0  0  0  0  0
    2.8550   10.1080   25.5900 C   0  0  0  0  0  0
    2.8500   11.5160   23.4810 C   0  0  0  0  0  0
    3.9180   12.4600   23.9900 C   0  0  0  0  0  0
    3.5990   13.7050   24.5440 C   0  0  0  0  0  0
    4.6890   14.4540   24.9780 C   0  0  0  0  0  0
   -0.6270   10.1470   26.5490 C   0  0  0  0  0  0
   -1.0030    9.4210   28.0750 Cl  0  0  0  0  0  0
   -0.1090   11.4220   24.1780 N   0  0  0  0  0  0
   -2.3840   11.7180   23.9640 N   0  0  0  0  0  0
    2.1970   10.8330   24.6080 N   0  0  0  0  0  0
    6.0140   14.0230   24.8720 C   0  0  0  0  0  0
    6.1770   12.7660   24.2990 C   0  0  0  0  0  0
    5.1720   11.9820   23.8780 N   0  0  0  0  0  0
    4.4200   16.0150   25.6950 Cl  0  0  0  0  0  0
    7.1860   14.8610   25.3090 C   0  0  0  0  0  0
    2.1820   14.2330   24.5880 C   0  0  0  0  0  0
    2.2030    9.0930   27.4010 H   0  0  0  0  0  0
    3.9170    9.9140   25.6070 H   0  0  0  0  0  0
    2.0952   12.0853   22.9187 H   0  0  0  0  0  0
    3.3088   10.7646   22.8215 H   0  0  0  0  0  0
   -3.4119   11.6233   24.3441 H   0  0  0  0  0  0
   -2.2014   12.1740   22.9798 H   0  0  0  0  0  0
    7.1840   12.3940   24.1850 H   0  0  0  0  0  0
    6.8216   15.8093   25.7309 H   0  0  0  0  0  0
    7.8313   15.0690   24.4428 H   0  0  0  0  0  0
    7.7613   14.3170   26.0726 H   0  0  0  0  0  0
    1.4939   13.4694   24.1963 H   0  0  0  0  0  0
    2.1101   15.1418   23.9725 H   0  0  0  0  0  0
    1.9118   14.4716   25.6272 H   0  0  0  0  0  0
  1  4  1  0  0  0
  1 13  2  0  0  0
  1 14  1  0  0  0
  2 22  1  0  0  0
  2  3  1  0  0  0
  2  6  2  0  0  0
  3 11  1  0  0  0
  3  5  2  0  0  0
  4 11  2  0  0  0
  5 13  1  0  0  0
  5 15  1  0  0  0
  6 23  1  0  0  0
  6 15  1  0  0  0
  7  8  1  0  0  0
  7 15  1  0  0  0
  7 24  1  0  0  0
  7 25  1  0  0  0
  8  9  1  0  0  0
  8 18  2  0  0  0
  9 21  1  0  0  0
  9 10  2  0  0  0
 10 19  1  0  0  0
 10 16  1  0  0  0
 11 12  1  0  0  0
 14 26  1  0  0  0
 14 27  1  0  0  0
 16 20  1  0  0  0
 16 17  2  0  0  0
 17 28  1  0  0  0
 17 18  1  0  0  0
 20 29  1  0  0  0
 20 30  1  0  0  0
 20 31  1  0  0  0
 21 32  1  0  0  0
 21 33  1  0  0  0
 21 34  1  0  0  0
M  END
> <s_m_source_file>
../wget-ligand-expo/72Y_model.sdf

> <i_m_source_file_index>
1

> <i_lp_mmshare_version>
54117

> <s_epik_input>
Q2xjMW5jKFtOSDJdKW5jKGMxMiluKFtjSF1bY0hdMilbQ0gyXWMzYyhbQ0gzXSljKENsKWMoW2NIXW4zKVtDSDNd

> <s_epik_cmdline>
J2VwaWtfcHl0aG9uJywgJy1waHQnLCAnMC4wJywgJy1waCcsICc3LjQnLCAnLW50JywgJy1tYScsICcyMDAnLCAnLWltYWUnLCAnPGluZmlsZS5tYWU+JywgJy1vbWFlJywgJzxvdXRmaWxlLm1hZT4n

> <r_lp_tautomer_probability>
1

> <r_epik_Ionization_Penalty>
0.00016

> <r_epik_Ionization_Penalty_Charging>
0

> <r_epik_Ionization_Penalty_Neutral>
0.00016

> <r_epik_State_Penalty>
-0

> <r_epik_Charging_Adjusted_Penalty>
0

> <i_epik_Tot_Q>
0

> <i_epik_Tot_abs_Q>
0

> <s_lp_Variant>
72Y-1

$$$$
