73J
                    3D
 Schrodinger Suite 2021-2.
 53 59  0  0  1  0            999 V2000
   32.0880   24.7720   11.0030 C   0  0  0  0  0  0
   35.1450   23.1190   12.0800 C   0  0  0  0  0  0
   33.7890   23.0550   12.0600 C   0  0  0  0  0  0
   33.3320   24.2570   11.4230 C   0  0  0  0  0  0
   34.4820   25.0040   11.0870 C   0  0  0  0  0  0
   30.8230   24.0660   11.3860 C   0  0  0  0  0  0
   34.4590   26.1770   10.4190 N   0  0  0  0  0  0
   27.3790   23.2860   10.2290 C   0  0  0  0  0  0
   24.9860   23.5850   10.1990 C   0  0  0  0  0  0
   26.1530   23.1140    9.6020 C   0  0  0  0  0  0
   32.0610   25.9670   10.2730 C   0  0  0  0  0  0
   33.2560   26.6220   10.0150 C   0  0  0  0  0  0
   35.5700   24.2920   11.4960 N   0  0  0  0  0  0
   29.7480   24.8050   11.6980 N   0  0  0  0  0  0
   30.8040   22.8460   11.4780 O   0  0  0  0  0  0
   25.0370   24.2360   11.4250 C   0  0  0  0  0  0
   26.2690   24.4190   12.0610 C   0  0  0  0  0  0
   27.4400   23.9310   11.4630 C   0  0  0  0  0  0
   28.5970   24.1790   12.3600 C   0  0  2  0  0  0
   26.6640   25.1160   13.3110 C   0  0  0  0  0  0
   28.0560   24.9770   13.4680 C   0  0  0  0  0  0
   28.7150   25.5630   14.5470 C   0  0  0  0  0  0
   28.0060   26.3010   15.4790 C   0  0  0  0  0  0
   26.6380   26.4720   15.3380 C   0  0  0  0  0  0
   25.9620   25.8770   14.2670 C   0  0  0  0  0  0
   24.5120   26.1110   14.2190 C   0  0  0  0  0  0
   23.9480   27.3330   14.4230 N   0  0  0  0  0  0
   23.6070   25.1510   14.0610 N   0  0  0  0  0  0
   22.3790   25.7900   14.1930 C   0  0  0  0  0  0
   22.5790   27.1510   14.4200 C   0  0  0  0  0  0
   21.5170   28.0330   14.5990 C   0  0  0  0  0  0
   20.2230   27.5260   14.5640 C   0  0  0  0  0  0
   20.0520   26.1690   14.3390 C   0  0  0  0  0  0
   21.0850   25.2790   14.1420 C   0  0  0  0  0  0
   18.7960   25.6680   14.3730 F   0  0  0  0  0  0
   35.7950   22.3620   12.4930 H   0  0  0  0  0  0
   33.1750   22.2560   12.4480 H   0  0  0  0  0  0
   28.2820   22.9210    9.7630 H   0  0  0  0  0  0
   24.0360   23.4430    9.7060 H   0  0  0  0  0  0
   26.1030   22.6130    8.6470 H   0  0  0  0  0  0
   31.1250   26.3720    9.9170 H   0  0  0  0  0  0
   33.2180   27.5450    9.4560 H   0  0  0  0  0  0
   36.5818   24.6912   11.3324 H   0  0  0  0  0  0
   29.7280   25.8784   11.4586 H   0  0  0  0  0  0
   24.1300   24.5990   11.8850 H   0  0  0  0  0  0
   29.0352   23.2369   12.7213 H   0  0  0  0  0  0
   29.7820   25.4410   14.6560 H   0  0  0  0  0  0
   28.5200   26.7450   16.3190 H   0  0  0  0  0  0
   26.0920   27.0660   16.0560 H   0  0  0  0  0  0
   21.6940   29.0860   14.7610 H   0  0  0  0  0  0
   19.3710   28.1740   14.7090 H   0  0  0  0  0  0
   20.8990   24.2310   13.9560 H   0  0  0  0  0  0
   23.6459   24.0689   13.8674 H   0  0  0  0  0  0
  1  6  1  0  0  0
  1  4  2  0  0  0
  1 11  1  0  0  0
  2 36  1  0  0  0
  2  3  2  0  0  0
  2 13  1  0  0  0
  3 37  1  0  0  0
  3  4  1  0  0  0
  4  5  1  0  0  0
  5 13  1  0  0  0
  5  7  2  0  0  0
  6 15  2  0  0  0
  6 14  1  0  0  0
  7 12  1  0  0  0
  8 18  2  0  0  0
  8 38  1  0  0  0
  8 10  1  0  0  0
  9 16  1  0  0  0
  9 39  1  0  0  0
  9 10  2  0  0  0
 10 40  1  0  0  0
 11 41  1  0  0  0
 11 12  2  0  0  0
 12 42  1  0  0  0
 13 43  1  0  0  0
 14 19  1  0  0  0
 14 44  1  0  0  0
 16 17  2  0  0  0
 16 45  1  0  0  0
 17 20  1  0  0  0
 17 18  1  0  0  0
 18 19  1  0  0  0
 19 21  1  0  0  0
 19 46  1  0  0  0
 20 21  2  0  0  0
 20 25  1  0  0  0
 21 22  1  0  0  0
 22 23  2  0  0  0
 22 47  1  0  0  0
 23 48  1  0  0  0
 23 24  1  0  0  0
 24 49  1  0  0  0
 24 25  2  0  0  0
 25 26  1  0  0  0
 26 27  2  0  0  0
 26 28  1  0  0  0
 27 30  1  0  0  0
 28 29  1  0  0  0
 28 53  1  0  0  0
 29 30  1  0  0  0
 29 34  2  0  0  0
 30 31  2  0  0  0
 31 50  1  0  0  0
 31 32  1  0  0  0
 32 51  1  0  0  0
 32 33  2  0  0  0
 33 35  1  0  0  0
 33 34  1  0  0  0
 34 52  1  0  0  0
M  END
> <s_m_source_file>
../wget-ligand-expo/73J_model.sdf

> <i_m_source_file_index>
1

> <i_lp_mmshare_version>
54117

> <s_epik_input>
W2NIXTFbY0hdW25IXWMoYzEyKW5bY0hdW2NIXWMyQyg9TylbTkhdW0NASF0oYyhjMzQpW2NIXVtjSF1bY0hdW2NIXTMpYzVjNGMoW2NIXVtjSF1bY0hdNSktYyhuNilbbkhdYyhjNjcpW2NIXVtjSF1jKEYpW2NIXTc=

> <s_epik_cmdline>
J2VwaWtfcHl0aG9uJywgJy1waHQnLCAnMC4wJywgJy1waCcsICc3LjQnLCAnLW50JywgJy1tYScsICcyMDAnLCAnLWltYWUnLCAnPGluZmlsZS5tYWU+JywgJy1vbWFlJywgJzxvdXRmaWxlLm1hZT4n

> <r_lp_tautomer_probability>
0.999998

> <r_epik_Ionization_Penalty>
0.101514

> <r_epik_Ionization_Penalty_Charging>
0

> <r_epik_Ionization_Penalty_Neutral>
0.101514

> <r_epik_State_Penalty>
0.333975

> <r_epik_Charging_Adjusted_Penalty>
0.333975

> <i_epik_Tot_Q>
0

> <i_epik_Tot_abs_Q>
0

> <s_lp_Variant>
73J-1

$$$$
