73Y
                    3D
 Schrodinger Suite 2021-2.
 54 60  0  0  1  0            999 V2000
    7.7120   11.1040   24.3930 C   0  0  0  0  0  0
    6.4730   11.7370   24.5270 C   0  0  0  0  0  0
    5.3070   11.0810   24.1130 C   0  0  0  0  0  0
    4.1450   11.9530   24.3340 C   0  0  2  0  0  0
    6.0740   13.0480   25.0850 C   0  0  0  0  0  0
    4.6810   13.1500   24.9880 C   0  0  0  0  0  0
    4.0150   14.2770   25.4620 C   0  0  0  0  0  0
    4.7250   15.3060   26.0500 C   0  0  0  0  0  0
    6.1020   15.2270   26.1570 C   0  0  0  0  0  0
    6.7970   14.1200   25.6640 C   0  0  0  0  0  0
    8.2870   14.1600   25.7090 C   0  0  0  0  0  0
    5.3790    9.7910   23.5900 C   0  0  0  0  0  0
    7.7720    9.8160   23.8740 C   0  0  0  0  0  0
    6.6090    9.1590   23.4830 C   0  0  0  0  0  0
    3.0300   11.3360   25.0670 N   0  0  0  0  0  0
    0.7280    9.7560   26.4700 C   0  0  0  0  0  0
   -0.4630    9.6960   27.1780 C   0  0  0  0  0  0
   -1.5960   10.2630   26.7360 N   0  0  0  0  0  0
    0.7800   10.4600   25.2480 C   0  0  0  0  0  0
   -0.3760   11.0140   24.7550 C   0  0  0  0  0  0
   -1.5180   10.8560   25.5290 C   0  0  0  0  0  0
   -2.5480   11.3120   24.7630 N   0  0  0  0  0  0
   -2.0020   11.7410   23.6010 C   0  0  0  0  0  0
   -0.6930   11.6080   23.5450 N   0  0  0  0  0  0
    2.0530   10.6440   24.4600 C   0  0  0  0  0  0
    2.1220   10.3050   23.2800 O   0  0  0  0  0  0
    8.9830   14.2240   26.9080 C   0  0  0  0  0  0
   10.3540   14.0370   24.4800 N   0  0  0  0  0  0
    9.0370   14.0910   24.5340 C   0  0  0  0  0  0
   11.0520   14.0920   25.6650 C   0  0  0  0  0  0
   10.3950   14.2020   26.9170 C   0  0  0  0  0  0
   11.1830   14.3020   28.0940 C   0  0  0  0  0  0
   12.5520   14.3030   28.0200 C   0  0  0  0  0  0
   13.1970   14.1950   26.7870 C   0  0  0  0  0  0
   12.4710   14.0700   25.6290 C   0  0  0  0  0  0
    2.2300    8.8280   27.1710 Br  0  0  0  0  0  0
    8.6170   11.6130   24.6910 H   0  0  0  0  0  0
    3.6650   12.1934   23.3739 H   0  0  0  0  0  0
    2.9410   14.3470   25.3700 H   0  0  0  0  0  0
    4.2040   16.1740   26.4270 H   0  0  0  0  0  0
    6.6470   16.0320   26.6280 H   0  0  0  0  0  0
    4.4800    9.2850   23.2690 H   0  0  0  0  0  0
    8.7270    9.3220   23.7740 H   0  0  0  0  0  0
    6.6650    8.1530   23.0950 H   0  0  0  0  0  0
    2.9714   11.4315   26.1613 H   0  0  0  0  0  0
   -0.4790    9.1720   28.1220 H   0  0  0  0  0  0
   -2.5870   12.1550   22.7930 H   0  0  0  0  0  0
    8.4410   14.2910   27.8400 H   0  0  0  0  0  0
    8.4980   14.0810   23.5980 H   0  0  0  0  0  0
   10.6990   14.3780   29.0570 H   0  0  0  0  0  0
   13.1370   14.3880   28.9240 H   0  0  0  0  0  0
   14.2760   14.2100   26.7440 H   0  0  0  0  0  0
   12.9820   13.9540   24.6850 H   0  0  0  0  0  0
   -0.1430   11.9496   22.6557 H   0  0  0  0  0  0
  1  2  1  0  0  0
  1 37  1  0  0  0
  1 13  2  0  0  0
  2  5  1  0  0  0
  2  3  2  0  0  0
  3  4  1  0  0  0
  3 12  1  0  0  0
  4  6  1  0  0  0
  4 15  1  0  0  0
  4 38  1  0  0  0
  5 10  1  0  0  0
  5  6  2  0  0  0
  6  7  1  0  0  0
  7  8  2  0  0  0
  7 39  1  0  0  0
  8  9  1  0  0  0
  8 40  1  0  0  0
  9 41  1  0  0  0
  9 10  2  0  0  0
 10 11  1  0  0  0
 11 27  2  0  0  0
 11 29  1  0  0  0
 12 42  1  0  0  0
 12 14  2  0  0  0
 13 43  1  0  0  0
 13 14  1  0  0  0
 14 44  1  0  0  0
 15 45  1  0  0  0
 15 25  1  0  0  0
 16 36  1  0  0  0
 16 17  2  0  0  0
 16 19  1  0  0  0
 17 46  1  0  0  0
 17 18  1  0  0  0
 18 21  2  0  0  0
 19 20  2  0  0  0
 19 25  1  0  0  0
 20 21  1  0  0  0
 20 24  1  0  0  0
 21 22  1  0  0  0
 22 23  2  0  0  0
 23 47  1  0  0  0
 23 24  1  0  0  0
 24 54  1  0  0  0
 25 26  2  0  0  0
 27 31  1  0  0  0
 27 48  1  0  0  0
 28 29  2  0  0  0
 28 30  1  0  0  0
 29 49  1  0  0  0
 30 31  1  0  0  0
 30 35  2  0  0  0
 31 32  2  0  0  0
 32 50  1  0  0  0
 32 33  1  0  0  0
 33 51  1  0  0  0
 33 34  2  0  0  0
 34 52  1  0  0  0
 34 35  1  0  0  0
 35 53  1  0  0  0
M  END
> <s_m_source_file>
../wget-ligand-expo/73Y_model.sdf

> <i_m_source_file_index>
1

> <i_lp_mmshare_version>
54117

> <s_epik_input>
W2NIXTFbY0hdW2NIXVtjSF1jKGMxMilbY0hdYyhbY0hdbjIpLWMoW2NIXVtjSF1bY0hdMyljNGMzW0NAQEhdKGMoYzQ1KVtjSF1bY0hdW2NIXVtjSF01KVtOSF1DKD1PKWM2YyhCcilbY0hdbmMoYzY3KVtuSF1bY0hdbjc=

> <s_epik_cmdline>
J2VwaWtfcHl0aG9uJywgJy1waHQnLCAnMC4wJywgJy1waCcsICc3LjQnLCAnLW50JywgJy1tYScsICcyMDAnLCAnLWltYWUnLCAnPGluZmlsZS5tYWU+JywgJy1vbWFlJywgJzxvdXRmaWxlLm1hZT4n

> <r_lp_tautomer_probability>
0.641916

> <r_epik_Ionization_Penalty>
0.412308

> <r_epik_Ionization_Penalty_Charging>
0

> <r_epik_Ionization_Penalty_Neutral>
0.412308

> <r_epik_State_Penalty>
0.395675

> <r_epik_Charging_Adjusted_Penalty>
0.395675

> <i_epik_Tot_Q>
0

> <i_epik_Tot_abs_Q>
0

> <s_lp_Variant>
73Y-1

$$$$
