73Z
                    3D
 Schrodinger Suite 2021-2.
 59 62  0  0  1  0            999 V2000
   25.6720   24.1990   12.9100 C   0  0  0  0  0  0
   26.7470   23.9310   11.9520 C   0  0  0  0  0  0
   28.0540   24.1750   12.3450 C   0  0  0  0  0  0
   28.1020   23.4780   10.2160 C   0  0  0  0  0  0
   26.7870   23.4840   10.5860 C   0  0  0  0  0  0
   27.0790   26.8470   13.7220 C   0  0  0  0  0  0
   27.7250   25.7170   15.8460 C   0  0  0  0  0  0
   25.6190   23.0930    9.6960 C   0  0  0  0  0  0
   30.3140   24.1190   11.1760 C   0  0  0  0  0  0
   31.1680   23.6770   12.1790 C   0  0  0  0  0  0
   26.0700   24.6200   14.3060 C   0  0  0  0  0  0
   27.3340   25.4900   14.3860 C   0  0  0  0  0  0
   28.4680   24.7530   13.6620 C   0  0  0  0  0  0
   28.8950   23.8930   11.2720 N   0  0  0  0  0  0
   24.4910   24.1970   12.5710 O   0  0  0  0  0  0
   32.5160   23.9870   12.1210 C   0  0  0  0  0  0
   33.0390   24.7190   11.0500 C   0  0  0  0  0  0
   32.1740   25.1610   10.0220 C   0  0  0  0  0  0
   30.8130   24.8510   10.0960 C   0  0  0  0  0  0
   34.5030   25.0400   11.0330 C   0  0  0  0  0  0
   32.6690   25.9180    8.9610 N   0  0  0  0  0  0
   31.8840   26.4330    7.8380 C   0  0  0  0  0  0
   31.4570   27.8640    8.1100 C   0  0  0  0  0  0
   30.6460   28.4470    6.9520 C   0  0  0  0  0  0
   31.3250   28.2750    5.6220 C   0  0  0  0  0  0
   31.9100   26.9150    5.3500 C   0  0  0  0  0  0
   32.6860   26.3490    6.5420 C   0  0  0  0  0  0
   31.3640   29.1670    4.8040 O   0  0  0  0  0  0
   35.3470   24.1620   11.5800 N   0  0  0  0  0  0
   34.8880   26.0960   10.5240 O   0  0  0  0  0  0
   28.4690   23.1910    9.2420 H   0  0  0  0  0  0
   26.2647   27.3658   14.2491 H   0  0  0  0  0  0
   26.7956   26.6931   12.6703 H   0  0  0  0  0  0
   27.9936   27.4563   13.7699 H   0  0  0  0  0  0
   26.9120   26.2455   16.3654 H   0  0  0  0  0  0
   28.6426   26.3221   15.8900 H   0  0  0  0  0  0
   27.9018   24.7468   16.3333 H   0  0  0  0  0  0
   25.9955   22.7979    8.7055 H   0  0  0  0  0  0
   24.9370   23.9494    9.5888 H   0  0  0  0  0  0
   25.0791   22.2487   10.1495 H   0  0  0  0  0  0
   30.7810   23.0930   13.0010 H   0  0  0  0  0  0
   25.2557   25.2048   14.7587 H   0  0  0  0  0  0
   26.2634   23.7263   14.9174 H   0  0  0  0  0  0
   28.8136   23.9456   14.3244 H   0  0  0  0  0  0
   29.2842   25.4738   13.5058 H   0  0  0  0  0  0
   33.1730   23.6590   12.9130 H   0  0  0  0  0  0
   30.1440   25.1790    9.3140 H   0  0  0  0  0  0
   33.7488   26.1205    9.0160 H   0  0  0  0  0  0
   30.9923   25.7934    7.7619 H   0  0  0  0  0  0
   30.8345   27.8949    9.0164 H   0  0  0  0  0  0
   32.3487   28.4913    8.2561 H   0  0  0  0  0  0
   29.6693   27.9439    6.8986 H   0  0  0  0  0  0
   30.4951   29.5242    7.1158 H   0  0  0  0  0  0
   31.1009   26.2088    5.1121 H   0  0  0  0  0  0
   32.6039   26.9779    4.4988 H   0  0  0  0  0  0
   32.9263   25.2920    6.3546 H   0  0  0  0  0  0
   33.6175   26.9184    6.6769 H   0  0  0  0  0  0
   34.9620   23.2319   12.0235 H   0  0  0  0  0  0
   36.4274   24.3687   11.5872 H   0  0  0  0  0  0
  1 11  1  0  0  0
  1  2  1  0  0  0
  1 15  2  0  0  0
  2  3  2  0  0  0
  2  5  1  0  0  0
  3 13  1  0  0  0
  3 14  1  0  0  0
  4  5  2  0  0  0
  4 14  1  0  0  0
  4 31  1  0  0  0
  5  8  1  0  0  0
  6 12  1  0  0  0
  6 32  1  0  0  0
  6 33  1  0  0  0
  6 34  1  0  0  0
  7 35  1  0  0  0
  7 36  1  0  0  0
  7 37  1  0  0  0
  7 12  1  0  0  0
  8 38  1  0  0  0
  8 39  1  0  0  0
  8 40  1  0  0  0
  9 14  1  0  0  0
  9 10  2  0  0  0
  9 19  1  0  0  0
 10 41  1  0  0  0
 10 16  1  0  0  0
 11 12  1  0  0  0
 11 42  1  0  0  0
 11 43  1  0  0  0
 12 13  1  0  0  0
 13 44  1  0  0  0
 13 45  1  0  0  0
 16 46  1  0  0  0
 16 17  2  0  0  0
 17 18  1  0  0  0
 17 20  1  0  0  0
 18 19  2  0  0  0
 18 21  1  0  0  0
 19 47  1  0  0  0
 20 29  1  0  0  0
 20 30  2  0  0  0
 21 48  1  0  0  0
 21 22  1  0  0  0
 22 23  1  0  0  0
 22 49  1  0  0  0
 22 27  1  0  0  0
 23 50  1  0  0  0
 23 51  1  0  0  0
 23 24  1  0  0  0
 24 52  1  0  0  0
 24 53  1  0  0  0
 24 25  1  0  0  0
 25 26  1  0  0  0
 25 28  2  0  0  0
 26 27  1  0  0  0
 26 54  1  0  0  0
 26 55  1  0  0  0
 27 56  1  0  0  0
 27 57  1  0  0  0
 29 58  1  0  0  0
 29 59  1  0  0  0
M  END
> <s_m_source_file>
../wget-ligand-expo/73Z_model.sdf

> <i_m_source_file_index>
1

> <i_lp_mmshare_version>
54117

> <s_epik_input>
Tz1DMVtDSDJdQyhbQ0gzXSkoW0NIM10pW0NIMl1jKGMxMiluKFtjSF1jMltDSDNdKS1jM1tjSF1bY0hdYyhDKD1PKVtOSDJdKWMoW2NIXTMpW05IXVtDSF00W0NIMl1bQ0gyXUMoPU8pW0NIMl1bQ0gyXTQ=

> <s_epik_cmdline>
J2VwaWtfcHl0aG9uJywgJy1waHQnLCAnMC4wJywgJy1waCcsICc3LjQnLCAnLW50JywgJy1tYScsICcyMDAnLCAnLWltYWUnLCAnPGluZmlsZS5tYWU+JywgJy1vbWFlJywgJzxvdXRmaWxlLm1hZT4n

> <r_lp_tautomer_probability>
1

> <r_epik_Ionization_Penalty>
3.81523e-06

> <r_epik_Ionization_Penalty_Charging>
0

> <r_epik_Ionization_Penalty_Neutral>
3.81523e-06

> <r_epik_State_Penalty>
-0

> <r_epik_Charging_Adjusted_Penalty>
0

> <i_epik_Tot_Q>
0

> <i_epik_Tot_abs_Q>
0

> <s_lp_Variant>
73Z-1

$$$$
