9EK
                    3D
 Schrodinger Suite 2021-2.
 60 64  0  0  1  0            999 V2000
   -0.1620   33.7110   21.7930 C   0  0  0  0  0  0
   -1.2960   32.6640   23.7750 C   0  0  0  0  0  0
   -0.0500   31.8070   25.6150 C   0  0  0  0  0  0
    1.1580   32.1350   24.9810 C   0  0  0  0  0  0
    2.2130   31.7700   25.9080 C   0  0  0  0  0  0
    3.6720   32.0490   25.6960 C   0  0  0  0  0  0
    5.8190   31.4030   24.6350 C   0  0  0  0  0  0
    3.8890   29.9850   24.3450 C   0  0  0  0  0  0
    1.2170   35.5700   22.6790 C   0  0  0  0  0  0
    2.5660   35.7920   22.5200 C   0  0  0  0  0  0
    1.2830   36.7850   24.7470 C   0  0  0  0  0  0
    0.3960   35.5850   20.3680 C   0  0  0  0  0  0
    5.3690   38.9710   26.2050 C   0  0  0  0  0  0
    3.7110   38.6490   27.7900 C   0  0  0  0  0  0
    2.7030   38.2080   26.7590 C   0  0  0  0  0  0
    0.4690   34.9060   21.6520 N   0  0  0  0  0  0
   -0.7980   33.2150   20.8950 O   0  0  0  0  0  0
   -0.0990   33.0200   23.1240 C   0  0  0  0  0  0
    1.1230   32.7360   23.7300 C   0  0  0  0  0  0
   -1.2780   32.0580   25.0210 C   0  0  0  0  0  0
   -2.4840   32.9000   23.1810 O   0  0  0  0  0  0
    1.6230   31.2520   26.9930 N   0  0  0  0  0  0
    0.2840   31.2840   26.8160 N   0  0  0  0  0  0
    4.4010   31.2150   24.9440 N   0  0  0  0  0  0
    6.2420   30.0610   24.1000 C   0  0  0  0  0  0
    5.0470   29.4690   23.5320 C   0  0  0  0  0  0
    4.1380   33.0200   26.2430 O   0  0  0  0  0  0
    2.6440   37.0150   24.5930 C   0  0  0  0  0  0
    3.2710   36.5100   23.4630 C   0  0  0  0  0  0
    0.5790   36.0670   23.7990 C   0  0  0  0  0  0
    3.3800   37.6940   25.5620 N   0  0  0  0  0  0
    4.4650   38.5450   25.0630 C   0  0  0  0  0  0
    4.6300   39.5630   27.2540 O   0  0  0  0  0  0
    5.9287   32.2046   23.8898 H   0  0  0  0  0  0
    6.3608   31.6782   25.5519 H   0  0  0  0  0  0
    3.5953   29.2844   25.1405 H   0  0  0  0  0  0
    3.0141   30.2179   23.7202 H   0  0  0  0  0  0
    3.0760   35.4020   21.6510 H   0  0  0  0  0  0
    0.7700   37.1710   25.6160 H   0  0  0  0  0  0
   -0.2001   34.9817   19.6676 H   0  0  0  0  0  0
    1.4110   35.7181   19.9654 H   0  0  0  0  0  0
   -0.0781   36.5688   20.4999 H   0  0  0  0  0  0
    6.1018   39.6948   25.8188 H   0  0  0  0  0  0
    5.8957   38.0825   26.5835 H   0  0  0  0  0  0
    3.1895   39.1322   28.6294 H   0  0  0  0  0  0
    4.2659   37.7735   28.1582 H   0  0  0  0  0  0
    2.0714   37.4123   27.1807 H   0  0  0  0  0  0
    2.0731   39.0632   26.4728 H   0  0  0  0  0  0
    2.0450   32.9840   23.2250 H   0  0  0  0  0  0
   -2.1980   31.7880   25.5180 H   0  0  0  0  0  0
   -3.4185   32.6216   23.6902 H   0  0  0  0  0  0
    2.2353   30.8904   27.8322 H   0  0  0  0  0  0
    7.0209   30.1999   23.3358 H   0  0  0  0  0  0
    6.6398   29.4475   24.9218 H   0  0  0  0  0  0
    4.9538   29.7705   22.4782 H   0  0  0  0  0  0
    5.1152   28.3729   23.5951 H   0  0  0  0  0  0
    4.3280   36.6820   23.3200 H   0  0  0  0  0  0
   -0.4780   35.8930   23.9350 H   0  0  0  0  0  0
    5.0589   37.9866   24.3245 H   0  0  0  0  0  0
    4.0393   39.4416   24.5888 H   0  0  0  0  0  0
  1 18  1  0  0  0
  1 16  1  0  0  0
  1 17  2  0  0  0
  2 20  2  0  0  0
  2 18  1  0  0  0
  2 21  1  0  0  0
  3 23  2  0  0  0
  3  4  1  0  0  0
  3 20  1  0  0  0
  4  5  2  0  0  0
  4 19  1  0  0  0
  5 22  1  0  0  0
  5  6  1  0  0  0
  6 27  2  0  0  0
  6 24  1  0  0  0
  7 24  1  0  0  0
  7 34  1  0  0  0
  7 35  1  0  0  0
  7 25  1  0  0  0
  8 24  1  0  0  0
  8 36  1  0  0  0
  8 37  1  0  0  0
  8 26  1  0  0  0
  9 30  1  0  0  0
  9 10  2  0  0  0
  9 16  1  0  0  0
 10 29  1  0  0  0
 10 38  1  0  0  0
 11 39  1  0  0  0
 11 28  1  0  0  0
 11 30  2  0  0  0
 12 16  1  0  0  0
 12 40  1  0  0  0
 12 41  1  0  0  0
 12 42  1  0  0  0
 13 33  1  0  0  0
 13 43  1  0  0  0
 13 44  1  0  0  0
 13 32  1  0  0  0
 14 45  1  0  0  0
 14 46  1  0  0  0
 14 15  1  0  0  0
 14 33  1  0  0  0
 15 47  1  0  0  0
 15 48  1  0  0  0
 15 31  1  0  0  0
 18 19  2  0  0  0
 19 49  1  0  0  0
 20 50  1  0  0  0
 21 51  1  0  0  0
 22 52  1  0  0  0
 22 23  1  0  0  0
 25 53  1  0  0  0
 25 54  1  0  0  0
 25 26  1  0  0  0
 26 55  1  0  0  0
 26 56  1  0  0  0
 28 31  1  0  0  0
 28 29  2  0  0  0
 29 57  1  0  0  0
 30 58  1  0  0  0
 31 32  1  0  0  0
 32 59  1  0  0  0
 32 60  1  0  0  0
M  END
> <s_m_source_file>
../wget-ligand-expo/9EK_model.sdf

> <i_m_source_file_index>
1

> <i_lp_mmshare_version>
54117

> <s_epik_input>
W0NIMl0xW0NIMl1bQ0gyXVtDSDJdTjFDKD1PKWMoW25IXW4yKWMoYzIzKVtjSF1jKGMoW2NIXTMpW09IXSlDKD1PKU4oW0NIM10pYzRbY0hdW2NIXWMoW2NIXVtjSF00KU41W0NIMl1bQ0gyXU9bQ0gyXVtDSDJdNQ==

> <s_epik_cmdline>
J2VwaWtfcHl0aG9uJywgJy1waHQnLCAnMC4wJywgJy1waCcsICc3LjQnLCAnLW50JywgJy1tYScsICcyMDAnLCAnLWltYWUnLCAnPGluZmlsZS5tYWU+JywgJy1vbWFlJywgJzxvdXRmaWxlLm1hZT4n

> <r_epik_Ionization_Penalty>
0.207352

> <r_epik_Ionization_Penalty_Charging>
0

> <r_epik_Ionization_Penalty_Neutral>
0.207352

> <r_epik_State_Penalty>
0.195735

> <r_epik_Charging_Adjusted_Penalty>
0.195735

> <i_epik_Tot_Q>
0

> <i_epik_Tot_abs_Q>
0

> <s_lp_Variant>
9EK-1

$$$$
