9R8
                    3D
 Schrodinger Suite 2021-2.
 62 66  0  0  1  0            999 V2000
   66.6840   34.1930   23.6990 C   0  0  0  0  0  0
   65.5130   33.8560   24.4300 C   0  0  0  0  0  0
   65.5760   33.2100   25.6460 C   0  0  0  0  0  0
   64.3100   34.2050   23.9200 O   0  0  0  0  0  0
   68.0220   33.3020   25.4770 C   0  0  0  0  0  0
   66.8430   32.9430   26.1860 C   0  0  0  0  0  0
   69.1230   32.9340   26.3620 C   0  0  0  0  0  0
   70.5960   33.2140   26.1430 C   0  0  0  0  0  0
   71.2560   32.5520   24.9630 C   0  0  0  0  0  0
   71.6630   33.3440   23.8870 C   0  0  0  0  0  0
   72.7120   31.4120   22.8800 C   0  0  0  0  0  0
   71.5980   31.2090   25.0220 C   0  0  0  0  0  0
   72.6570   29.1930   24.0440 C   0  0  0  0  0  0
   68.2730   37.9130   25.2540 C   0  0  0  0  0  0
   67.4530   37.2510   24.3420 C   0  0  0  0  0  0
   69.3420   36.8510   22.8680 C   0  0  0  0  0  0
   70.5180   38.6870   25.9200 N   0  0  0  0  0  0
   69.9100   39.0290   27.2350 C   0  0  0  0  0  0
   70.8360   39.9420   28.0580 C   0  0  0  0  0  0
   72.7470   39.1540   26.7600 C   0  0  0  0  0  0
   71.8790   38.1170   26.0210 C   0  0  0  0  0  0
   67.9540   33.8790   24.2060 C   0  0  0  0  0  0
   66.5390   34.8760   22.3910 C   0  0  0  0  0  0
   65.8330   34.3380   21.5410 O   0  0  0  0  0  0
   67.2300   32.4350   27.3930 N   0  0  0  0  0  0
   68.6240   32.4460   27.4610 N   0  0  0  0  0  0
   72.3030   30.6380   23.9600 C   0  0  0  0  0  0
   72.3730   32.7580   22.8380 C   0  0  0  0  0  0
   67.9650   36.7250   23.1430 C   0  0  0  0  0  0
   69.6500   37.9990   25.0090 C   0  0  0  0  0  0
   70.1480   37.5150   23.7830 C   0  0  0  0  0  0
   67.1310   36.0840   22.1910 N   0  0  0  0  0  0
   66.9450   36.7400   20.8890 C   0  0  0  0  0  0
   72.1450   39.3590   28.0530 O   0  0  0  0  0  0
   64.6770   32.9180   26.1680 H   0  0  0  0  0  0
   64.2525   34.7207   22.9501 H   0  0  0  0  0  0
   70.7459   34.2936   25.9949 H   0  0  0  0  0  0
   71.1671   32.8818   27.0225 H   0  0  0  0  0  0
   71.4310   34.3990   23.8670 H   0  0  0  0  0  0
   73.2880   30.9700   22.0810 H   0  0  0  0  0  0
   71.3220   30.6120   25.8790 H   0  0  0  0  0  0
   73.2060   28.8967   23.1380 H   0  0  0  0  0  0
   71.7378   28.5946   24.1279 H   0  0  0  0  0  0
   73.2885   29.0210   24.9281 H   0  0  0  0  0  0
   67.8500   38.3570   26.1430 H   0  0  0  0  0  0
   66.4010   37.1400   24.5610 H   0  0  0  0  0  0
   69.7620   36.4390   21.9620 H   0  0  0  0  0  0
   68.9562   39.5524   27.0729 H   0  0  0  0  0  0
   69.7296   38.1066   27.8066 H   0  0  0  0  0  0
   70.8628   40.9431   27.6029 H   0  0  0  0  0  0
   70.4561   40.0173   29.0876 H   0  0  0  0  0  0
   72.7685   40.1066   26.2104 H   0  0  0  0  0  0
   73.7740   38.7816   26.8886 H   0  0  0  0  0  0
   71.8399   37.1717   26.5821 H   0  0  0  0  0  0
   72.2733   37.9281   25.0116 H   0  0  0  0  0  0
   68.8480   34.0760   23.6340 H   0  0  0  0  0  0
   66.4727   32.1014   28.1177 H   0  0  0  0  0  0
   72.6610   33.3560   21.9860 H   0  0  0  0  0  0
   71.1910   37.6650   23.5470 H   0  0  0  0  0  0
   66.2784   36.1291   20.2625 H   0  0  0  0  0  0
   67.9195   36.8482   20.3904 H   0  0  0  0  0  0
   66.4979   37.7337   21.0396 H   0  0  0  0  0  0
  1 22  2  0  0  0
  1  2  1  0  0  0
  1 23  1  0  0  0
  2  3  2  0  0  0
  2  4  1  0  0  0
  3  6  1  0  0  0
  3 35  1  0  0  0
  4 36  1  0  0  0
  5  6  2  0  0  0
  5  7  1  0  0  0
  5 22  1  0  0  0
  6 25  1  0  0  0
  7 26  2  0  0  0
  7  8  1  0  0  0
  8 37  1  0  0  0
  8 38  1  0  0  0
  8  9  1  0  0  0
  9 12  1  0  0  0
  9 10  2  0  0  0
 10 39  1  0  0  0
 10 28  1  0  0  0
 11 27  1  0  0  0
 11 40  1  0  0  0
 11 28  2  0  0  0
 12 41  1  0  0  0
 12 27  2  0  0  0
 13 42  1  0  0  0
 13 43  1  0  0  0
 13 44  1  0  0  0
 13 27  1  0  0  0
 14 45  1  0  0  0
 14 15  2  0  0  0
 14 30  1  0  0  0
 15 46  1  0  0  0
 15 29  1  0  0  0
 16 29  2  0  0  0
 16 31  1  0  0  0
 16 47  1  0  0  0
 17 21  1  0  0  0
 17 18  1  0  0  0
 17 30  1  0  0  0
 18 19  1  0  0  0
 18 48  1  0  0  0
 18 49  1  0  0  0
 19 50  1  0  0  0
 19 51  1  0  0  0
 19 34  1  0  0  0
 20 34  1  0  0  0
 20 52  1  0  0  0
 20 53  1  0  0  0
 20 21  1  0  0  0
 21 54  1  0  0  0
 21 55  1  0  0  0
 22 56  1  0  0  0
 23 24  2  0  0  0
 23 32  1  0  0  0
 25 26  1  0  0  0
 25 57  1  0  0  0
 28 58  1  0  0  0
 29 32  1  0  0  0
 30 31  2  0  0  0
 31 59  1  0  0  0
 32 33  1  0  0  0
 33 60  1  0  0  0
 33 61  1  0  0  0
 33 62  1  0  0  0
M  END
> <s_m_source_file>
../wget-ligand-expo/9R8_model.sdf

> <i_m_source_file_index>
1

> <i_lp_mmshare_version>
54117

> <s_epik_input>
W0NIMl0xW0NIMl1PW0NIMl1bQ0gyXU4xYyhbY0hdW2NIXTIpW2NIXVtjSF1jMk4oW0NIM10pQyg9TyljKFtjSF0zKWMoW09IXSlbY0hdYyhjMzQpW25IXW5jNFtDSDJdYzVbY0hdW2NIXVtjSF1jKFtjSF01KVtDSDNd

> <s_epik_cmdline>
J2VwaWtfcHl0aG9uJywgJy1waHQnLCAnMC4wJywgJy1waCcsICc3LjQnLCAnLW50JywgJy1tYScsICcyMDAnLCAnLWltYWUnLCAnPGluZmlsZS5tYWU+JywgJy1vbWFlJywgJzxvdXRmaWxlLm1hZT4n

> <r_epik_Ionization_Penalty>
0.0386355

> <r_epik_Ionization_Penalty_Charging>
0

> <r_epik_Ionization_Penalty_Neutral>
0.0386355

> <r_epik_State_Penalty>
0.0324094

> <r_epik_Charging_Adjusted_Penalty>
0.0324094

> <i_epik_Tot_Q>
0

> <i_epik_Tot_abs_Q>
0

> <s_lp_Variant>
9R8-1

$$$$
