H0T
                    3D
 Schrodinger Suite 2021-2.
 66 71  0  0  1  0            999 V2000
   -1.2700   34.0980   25.1950 C   0  0  0  0  0  0
   -2.8910   33.5640   23.3880 C   0  0  0  0  0  0
   -3.1950   34.6210   22.8980 O   0  0  0  0  0  0
   -2.1710   34.9930   25.7590 C   0  0  0  0  0  0
    0.3340   34.5810   26.9580 C   0  0  0  0  0  0
   -1.8010   35.6650   26.9040 C   0  0  0  0  0  0
   -0.5460   35.4530   27.4910 C   0  0  0  0  0  0
    0.4950   32.4100   24.1250 C   0  0  0  0  0  0
   -2.6960   36.6730   27.4990 C   0  0  0  0  0  0
   -5.0890   32.5570   22.7880 C   0  0  0  0  0  0
   -5.7960   31.3240   23.2650 C   0  0  0  0  0  0
   -7.1100   30.9240   23.1310 C   0  0  0  0  0  0
   -7.5270   29.7270   23.6600 C   0  0  0  0  0  0
   -6.6240   28.9270   24.3240 C   0  0  0  0  0  0
   -3.6660   36.3600   28.4390 C   0  0  0  0  0  0
   -3.3090   38.9840   27.5980 C   0  0  0  0  0  0
   -3.3870   38.6480   24.1780 C   0  0  0  0  0  0
   -3.4850   39.3150   22.8070 C   0  0  0  0  0  0
   -3.7500   32.5400   23.3640 N   0  0  0  0  0  0
   -1.5730   33.3840   24.0230 C   0  0  0  0  0  0
   -0.0080   33.8900   25.7960 C   0  0  0  0  0  0
   -0.6760   32.5550   23.5340 N   0  0  0  0  0  0
    0.8250   33.0340   25.2300 N   0  0  0  0  0  0
    1.4050   31.5440   23.5690 N   0  0  0  0  0  0
   -3.5460   31.2020   23.9200 C   0  0  0  0  0  0
   -4.8920   30.5240   23.9260 C   0  0  0  0  0  0
   -5.3110   29.3210   24.4550 C   0  0  0  0  0  0
   -4.4560   37.3640   28.9470 C   0  0  0  0  0  0
   -4.2770   38.6680   28.5300 C   0  0  0  0  0  0
   -2.5060   37.9990   27.0790 C   0  0  0  0  0  0
   -1.2960   38.4640   25.8680 S   0  0  0  0  0  0
   -1.1790   39.8670   25.9330 O   0  0  0  0  0  0
   -0.1720   37.6230   25.9240 O   0  0  0  0  0  0
   -2.0120   38.1860   24.4070 N   0  0  0  0  0  0
   -2.9800   38.3930   21.7880 N   0  0  0  0  0  0
   -1.5460   38.1730   21.9920 C   0  0  0  0  0  0
   -1.3180   37.4670   23.3280 C   0  0  0  0  0  0
   -3.2360   38.9330   20.4510 C   0  0  0  0  0  0
   -3.1390   35.1580   25.3100 H   0  0  0  0  0  0
    1.2940   34.4200   27.4260 H   0  0  0  0  0  0
   -0.2790   35.9970   28.3850 H   0  0  0  0  0  0
   -5.0365   32.5477   21.6893 H   0  0  0  0  0  0
   -5.6410   33.4482   23.1211 H   0  0  0  0  0  0
   -7.8130   31.5550   22.6080 H   0  0  0  0  0  0
   -8.5560   29.4150   23.5560 H   0  0  0  0  0  0
   -6.9470   27.9860   24.7440 H   0  0  0  0  0  0
   -3.7990   35.3400   28.7680 H   0  0  0  0  0  0
   -3.1830   40.0070   27.2770 H   0  0  0  0  0  0
   -4.0734   37.7892   24.2154 H   0  0  0  0  0  0
   -3.6646   39.3734   24.9569 H   0  0  0  0  0  0
   -4.5354   39.5625   22.5939 H   0  0  0  0  0  0
   -2.8833   40.2359   22.8034 H   0  0  0  0  0  0
    2.3890   31.4031   24.0400 H   0  0  0  0  0  0
    1.1496   30.9914   22.6528 H   0  0  0  0  0  0
   -2.8325   30.6487   23.2916 H   0  0  0  0  0  0
   -3.1464   31.2863   24.9414 H   0  0  0  0  0  0
   -4.6070   28.6860   24.9730 H   0  0  0  0  0  0
   -5.2190   37.1320   29.6750 H   0  0  0  0  0  0
   -4.9010   39.4490   28.9380 H   0  0  0  0  0  0
   -1.1514   37.5480   21.1774 H   0  0  0  0  0  0
   -1.0236   39.1410   21.9974 H   0  0  0  0  0  0
   -1.7075   36.4398   23.2711 H   0  0  0  0  0  0
   -0.2407   37.4389   23.5487 H   0  0  0  0  0  0
   -2.8531   38.2333   19.6935 H   0  0  0  0  0  0
   -2.7285   39.9030   20.3440 H   0  0  0  0  0  0
   -4.3187   39.0682   20.3113 H   0  0  0  0  0  0
  1  4  2  0  0  0
  1 21  1  0  0  0
  1 20  1  0  0  0
  2 20  1  0  0  0
  2  3  2  0  0  0
  2 19  1  0  0  0
  4  6  1  0  0  0
  4 39  1  0  0  0
  5  7  1  0  0  0
  5 40  1  0  0  0
  5 21  2  0  0  0
  6  7  2  0  0  0
  6  9  1  0  0  0
  7 41  1  0  0  0
  8 23  2  0  0  0
  8 22  1  0  0  0
  8 24  1  0  0  0
  9 15  1  0  0  0
  9 30  2  0  0  0
 10 11  1  0  0  0
 10 19  1  0  0  0
 10 42  1  0  0  0
 10 43  1  0  0  0
 11 26  1  0  0  0
 11 12  2  0  0  0
 12 13  1  0  0  0
 12 44  1  0  0  0
 13 14  2  0  0  0
 13 45  1  0  0  0
 14 27  1  0  0  0
 14 46  1  0  0  0
 15 28  2  0  0  0
 15 47  1  0  0  0
 16 29  2  0  0  0
 16 48  1  0  0  0
 16 30  1  0  0  0
 17 34  1  0  0  0
 17 49  1  0  0  0
 17 50  1  0  0  0
 17 18  1  0  0  0
 18 51  1  0  0  0
 18 52  1  0  0  0
 18 35  1  0  0  0
 19 25  1  0  0  0
 20 22  2  0  0  0
 21 23  1  0  0  0
 24 53  1  0  0  0
 24 54  1  0  0  0
 25 26  1  0  0  0
 25 55  1  0  0  0
 25 56  1  0  0  0
 26 27  2  0  0  0
 27 57  1  0  0  0
 28 58  1  0  0  0
 28 29  1  0  0  0
 29 59  1  0  0  0
 30 31  1  0  0  0
 31 33  2  0  0  0
 31 32  2  0  0  0
 31 34  1  0  0  0
 34 37  1  0  0  0
 35 36  1  0  0  0
 35 38  1  0  0  0
 36 37  1  0  0  0
 36 60  1  0  0  0
 36 61  1  0  0  0
 37 62  1  0  0  0
 37 63  1  0  0  0
 38 64  1  0  0  0
 38 65  1  0  0  0
 38 66  1  0  0  0
M  END
> <s_m_source_file>
../wget-ligand-expo/H0T_model.sdf

> <i_m_source_file_index>
1

> <i_lp_mmshare_version>
54117

> <s_epik_input>
W2NIXTFbY0hdW2NIXVtjSF1jKGMxMilbQ0gyXU4oW0NIMl0yKUMoPU8pYzNuYyhbTkgyXSluYyhjMzQpW2NIXVtjSF1jKFtjSF00KS1jNVtjSF1bY0hdW2NIXVtjSF1jNVMoPU8pKD1PKU42W0NIMl1bQ0gyXU4oW0NIM10pW0NIMl1bQ0gyXTY=

> <s_epik_cmdline>
J2VwaWtfcHl0aG9uJywgJy1waHQnLCAnMC4wJywgJy1waCcsICc3LjQnLCAnLW50JywgJy1tYScsICcyMDAnLCAnLWltYWUnLCAnPGluZmlsZS5tYWU+JywgJy1vbWFlJywgJzxvdXRmaWxlLm1hZT4n

> <r_epik_Ionization_Penalty>
0.0804398

> <r_epik_Ionization_Penalty_Charging>
0

> <r_epik_Ionization_Penalty_Neutral>
0.0804398

> <r_epik_State_Penalty>
0.071225

> <r_epik_Charging_Adjusted_Penalty>
0.071225

> <i_epik_Tot_Q>
0

> <i_epik_Tot_abs_Q>
0

> <s_lp_Variant>
H0T-1

$$$$
