9RZ
                    3D
 Schrodinger Suite 2021-2.
 67 71  0  0  1  0            999 V2000
   -0.8310   34.3510   22.6290 C   0  0  0  0  0  0
   -1.9540   33.2480   24.6500 C   0  0  0  0  0  0
   -0.6540   32.4870   26.5100 C   0  0  0  0  0  0
    0.5830   32.9500   25.8660 C   0  0  0  0  0  0
    1.6600   32.5970   26.8320 C   0  0  0  0  0  0
    3.0750   33.0040   26.5910 C   0  0  0  0  0  0
    5.0620   33.4350   25.3540 C   0  0  0  0  0  0
    4.7180   30.6380   24.8600 C   0  0  1  0  0  0
    6.0430   31.3260   24.5710 C   0  0  0  0  0  0
    6.2200   32.4740   25.5330 C   0  0  0  0  0  0
    0.5610   36.1780   23.3880 C   0  0  0  0  0  0
    2.7630   36.8880   24.1560 C   0  0  0  0  0  0
   -0.3330   36.1840   21.1070 C   0  0  0  0  0  0
    2.4110   38.4470   27.5860 C   0  0  0  0  0  0
    3.3610   39.0840   28.5990 C   0  0  0  0  0  0
    5.1120   39.0750   27.1700 C   0  0  0  0  0  0
   -0.2350   35.5250   22.4150 N   0  0  0  0  0  0
   -1.5100   33.8040   21.7410 O   0  0  0  0  0  0
   -0.7100   33.6890   23.9730 C   0  0  0  0  0  0
    0.5510   33.5240   24.6030 C   0  0  0  0  0  0
   -1.8830   32.6500   25.8940 C   0  0  0  0  0  0
   -3.1850   33.4080   24.0880 O   0  0  0  0  0  0
    1.1210   32.0590   27.9210 N   0  0  0  0  0  0
   -0.2690   31.9930   27.7030 N   0  0  0  0  0  0
    3.4780   33.8360   27.3740 O   0  0  0  0  0  0
    3.8510   32.6640   25.6220 N   0  0  0  0  0  0
    3.5380   31.5720   24.7650 C   0  0  0  0  0  0
    4.3710   29.6800   23.8800 O   0  0  0  0  0  0
    5.3670   28.6990   23.6600 C   0  0  0  0  0  0
    0.0130   36.7050   24.5680 C   0  0  0  0  0  0
    2.2150   37.4250   25.3400 C   0  0  0  0  0  0
    0.8220   37.3110   25.5360 C   0  0  0  0  0  0
    1.9430   36.2800   23.1830 C   0  0  0  0  0  0
    3.0450   38.0450   26.3310 N   0  0  0  0  0  0
    4.6750   38.6140   28.4280 O   0  0  0  0  0  0
    4.4740   38.2080   26.0900 C   0  0  0  0  0  0
    5.1655   34.2699   26.0626 H   0  0  0  0  0  0
    5.0645   33.8247   24.3253 H   0  0  0  0  0  0
    4.8632   30.1607   25.8404 H   0  0  0  0  0  0
    6.8651   30.6061   24.6971 H   0  0  0  0  0  0
    6.0421   31.7043   23.5381 H   0  0  0  0  0  0
    7.1654   32.9961   25.3242 H   0  0  0  0  0  0
    6.2289   32.0990   26.5671 H   0  0  0  0  0  0
    3.8290   36.9440   23.9920 H   0  0  0  0  0  0
   -0.9732   35.5857   20.4420 H   0  0  0  0  0  0
    0.6706   36.2745   20.6659 H   0  0  0  0  0  0
   -0.7699   37.1856   21.2329 H   0  0  0  0  0  0
    1.9626   37.5423   28.0224 H   0  0  0  0  0  0
    1.6162   39.1625   27.3284 H   0  0  0  0  0  0
    3.3588   40.1761   28.4674 H   0  0  0  0  0  0
    3.0295   38.8369   29.6183 H   0  0  0  0  0  0
    4.8081   40.1239   27.0381 H   0  0  0  0  0  0
    6.2080   39.0008   27.1128 H   0  0  0  0  0  0
    1.4610   33.8370   24.1130 H   0  0  0  0  0  0
   -2.7840   32.3110   26.3840 H   0  0  0  0  0  0
   -4.0829   33.0668   24.6240 H   0  0  0  0  0  0
   -1.0190   31.5893   28.3991 H   0  0  0  0  0  0
    3.4137   31.9009   23.7227 H   0  0  0  0  0  0
    2.6286   31.0487   25.0953 H   0  0  0  0  0  0
    5.0236   27.9945   22.8882 H   0  0  0  0  0  0
    5.5573   28.1533   24.5960 H   0  0  0  0  0  0
    6.2943   29.1867   23.3249 H   0  0  0  0  0  0
   -1.0530   36.6420   24.7320 H   0  0  0  0  0  0
    0.3760   37.6950   26.4420 H   0  0  0  0  0  0
    2.3820   35.8910   22.2760 H   0  0  0  0  0  0
    4.9614   37.2219   26.0943 H   0  0  0  0  0  0
    4.6286   38.6892   25.1130 H   0  0  0  0  0  0
  1 19  1  0  0  0
  1 17  1  0  0  0
  1 18  2  0  0  0
  2 21  2  0  0  0
  2 19  1  0  0  0
  2 22  1  0  0  0
  3 24  1  0  0  0
  3  4  2  0  0  0
  3 21  1  0  0  0
  4  5  1  0  0  0
  4 20  1  0  0  0
  5 23  2  0  0  0
  5  6  1  0  0  0
  6 25  2  0  0  0
  6 26  1  0  0  0
  7 10  1  0  0  0
  7 26  1  0  0  0
  7 37  1  0  0  0
  7 38  1  0  0  0
  8 39  1  0  0  0
  8  9  1  0  0  0
  8 27  1  0  0  0
  8 28  1  0  0  0
  9 10  1  0  0  0
  9 40  1  0  0  0
  9 41  1  0  0  0
 10 42  1  0  0  0
 10 43  1  0  0  0
 11 30  1  0  0  0
 11 17  1  0  0  0
 11 33  2  0  0  0
 12 31  2  0  0  0
 12 44  1  0  0  0
 12 33  1  0  0  0
 13 17  1  0  0  0
 13 45  1  0  0  0
 13 46  1  0  0  0
 13 47  1  0  0  0
 14 15  1  0  0  0
 14 48  1  0  0  0
 14 49  1  0  0  0
 14 34  1  0  0  0
 15 50  1  0  0  0
 15 51  1  0  0  0
 15 35  1  0  0  0
 16 35  1  0  0  0
 16 52  1  0  0  0
 16 53  1  0  0  0
 16 36  1  0  0  0
 19 20  2  0  0  0
 20 54  1  0  0  0
 21 55  1  0  0  0
 22 56  1  0  0  0
 23 24  1  0  0  0
 24 57  1  0  0  0
 26 27  1  0  0  0
 27 58  1  0  0  0
 27 59  1  0  0  0
 28 29  1  0  0  0
 29 60  1  0  0  0
 29 61  1  0  0  0
 29 62  1  0  0  0
 30 32  2  0  0  0
 30 63  1  0  0  0
 31 32  1  0  0  0
 31 34  1  0  0  0
 32 64  1  0  0  0
 33 65  1  0  0  0
 34 36  1  0  0  0
 36 66  1  0  0  0
 36 67  1  0  0  0
M  END
> <s_m_source_file>
../wget-ligand-expo/9RZ_model.sdf

> <i_m_source_file_index>
1

> <i_lp_mmshare_version>
54117

> <s_epik_input>
W0NIMl0xW0NIMl1PW0NIMl1bQ0gyXU4xYyhbY0hdW2NIXTIpW2NIXVtjSF1jMk4oW0NIM10pQyg9TyljKGMoW2NIXTMpW09IXSlbY0hdYyhjMzQpYyhuW25IXTQpQyg9TylOKFtDSDJdNSlbQ0gyXVtDSDJdW0NIMl1bQ0BASF01T1tDSDNd

> <s_epik_cmdline>
J2VwaWtfcHl0aG9uJywgJy1waHQnLCAnMC4wJywgJy1waCcsICc3LjQnLCAnLW50JywgJy1tYScsICcyMDAnLCAnLWltYWUnLCAnPGluZmlsZS5tYWU+JywgJy1vbWFlJywgJzxvdXRmaWxlLm1hZT4n

> <r_epik_Ionization_Penalty>
0.104308

> <r_epik_Ionization_Penalty_Charging>
0

> <r_epik_Ionization_Penalty_Neutral>
0.104308

> <r_epik_State_Penalty>
0.0938528

> <r_epik_Charging_Adjusted_Penalty>
0.0938528

> <i_epik_Tot_Q>
0

> <i_epik_Tot_abs_Q>
0

> <s_lp_Variant>
9RZ-1

$$$$
