9RZ
                    3D
 Schrodinger Suite 2021-2.
 67 71  0  0  1  0            999 V2000
   -0.2270   33.9600   21.9980 C   0  0  0  0  0  0
   -1.3550   32.8410   23.9000 C   0  0  0  0  0  0
   -0.1240   32.1240   25.8260 C   0  0  0  0  0  0
    1.0550   32.6110   25.2340 C   0  0  0  0  0  0
    2.0950   32.3290   26.2130 C   0  0  0  0  0  0
    3.4920   32.7630   26.0670 C   0  0  0  0  0  0
    5.7560   32.8790   25.1280 C   0  0  0  0  0  0
    5.2250   30.2480   24.1980 C   0  0  1  0  0  0
    6.3950   31.0610   23.6740 C   0  0  0  0  0  0
    6.8480   31.8730   24.8360 C   0  0  0  0  0  0
    1.0430   35.8470   22.8250 C   0  0  0  0  0  0
    3.0640   36.7740   23.6770 C   0  0  0  0  0  0
    0.3020   35.7960   20.5210 C   0  0  0  0  0  0
    2.5270   38.0430   27.1410 C   0  0  0  0  0  0
    3.1930   39.1240   27.9840 C   0  0  0  0  0  0
    5.1220   39.1180   26.6700 C   0  0  0  0  0  0
    0.3630   35.1560   21.8160 N   0  0  0  0  0  0
   -0.7940   33.3910   21.1090 O   0  0  0  0  0  0
   -0.1730   33.3170   23.3160 C   0  0  0  0  0  0
    1.0200   33.2020   23.9850 C   0  0  0  0  0  0
   -1.3220   32.2370   25.1350 C   0  0  0  0  0  0
   -2.5010   32.9900   23.2370 O   0  0  0  0  0  0
    1.4930   31.7890   27.2260 N   0  0  0  0  0  0
    0.2570   31.6270   27.0240 N   0  0  0  0  0  0
    3.7920   33.6770   26.7670 O   0  0  0  0  0  0
    4.3910   32.2830   25.2130 N   0  0  0  0  0  0
    4.0350   31.1770   24.3510 C   0  0  0  0  0  0
    4.8700   29.2940   23.2820 O   0  0  0  0  0  0
    5.8760   28.3330   23.0450 C   0  0  0  0  0  0
    0.4060   36.3380   23.9450 C   0  0  0  0  0  0
    2.4310   37.2480   24.8100 C   0  0  0  0  0  0
    1.0760   37.0260   24.9170 C   0  0  0  0  0  0
    2.3860   36.0860   22.7080 C   0  0  0  0  0  0
    3.1160   37.9610   25.7990 N   0  0  0  0  0  0
    4.5780   38.9250   27.9570 O   0  0  0  0  0  0
    4.5710   38.0240   25.7430 C   0  0  0  0  0  0
    5.9574   33.3693   26.0919 H   0  0  0  0  0  0
    5.7314   33.6355   24.3299 H   0  0  0  0  0  0
    5.4903   29.6906   25.1084 H   0  0  0  0  0  0
    7.1844   30.3815   23.3201 H   0  0  0  0  0  0
    6.0570   31.6955   22.8414 H   0  0  0  0  0  0
    7.7815   32.4039   24.5980 H   0  0  0  0  0  0
    7.0040   31.2347   25.7182 H   0  0  0  0  0  0
    4.1223   36.9593   23.5674 H   0  0  0  0  0  0
   -0.2552   35.1556   19.8214 H   0  0  0  0  0  0
    1.3223   35.9530   20.1412 H   0  0  0  0  0  0
   -0.2075   36.7663   20.6152 H   0  0  0  0  0  0
    1.4561   38.2799   27.0575 H   0  0  0  0  0  0
    2.6501   37.0783   27.6551 H   0  0  0  0  0  0
    2.9498   40.1137   27.5700 H   0  0  0  0  0  0
    2.8266   39.0595   29.0192 H   0  0  0  0  0  0
    6.2189   39.0464   26.7100 H   0  0  0  0  0  0
    4.8329   40.1063   26.2831 H   0  0  0  0  0  0
    1.9303   33.5723   23.5371 H   0  0  0  0  0  0
   -2.2307   31.8485   25.5706 H   0  0  0  0  0  0
   -2.5063   33.4759   22.2502 H   0  0  0  0  0  0
   -0.4847   31.1535   27.6841 H   0  0  0  0  0  0
    3.7416   31.5627   23.3635 H   0  0  0  0  0  0
    3.1931   30.6246   24.7937 H   0  0  0  0  0  0
    5.5192   27.6043   22.3023 H   0  0  0  0  0  0
    6.1144   27.8125   23.9843 H   0  0  0  0  0  0
    6.7784   28.8333   22.6638 H   0  0  0  0  0  0
   -0.6550   36.1832   24.0742 H   0  0  0  0  0  0
    0.5429   37.4008   25.7783 H   0  0  0  0  0  0
    2.9244   35.7299   21.8422 H   0  0  0  0  0  0
    4.8710   38.2365   24.7063 H   0  0  0  0  0  0
    4.9742   37.0472   26.0485 H   0  0  0  0  0  0
  1 18  2  0  0  0
  1 17  1  0  0  0
  1 19  1  0  0  0
  2 19  1  0  0  0
  2 22  1  0  0  0
  2 21  2  0  0  0
  3  4  2  0  0  0
  3 21  1  0  0  0
  3 24  1  0  0  0
  4 20  1  0  0  0
  4  5  1  0  0  0
  5  6  1  0  0  0
  5 23  2  0  0  0
  6 26  1  0  0  0
  6 25  2  0  0  0
  7 10  1  0  0  0
  7 26  1  0  0  0
  7 37  1  0  0  0
  7 38  1  0  0  0
  8 28  1  0  0  0
  8  9  1  0  0  0
  8 27  1  0  0  0
  8 39  1  0  0  0
  9 10  1  0  0  0
  9 40  1  0  0  0
  9 41  1  0  0  0
 10 42  1  0  0  0
 10 43  1  0  0  0
 11 17  1  0  0  0
 11 33  2  0  0  0
 11 30  1  0  0  0
 12 33  1  0  0  0
 12 31  2  0  0  0
 12 44  1  0  0  0
 13 17  1  0  0  0
 13 45  1  0  0  0
 13 46  1  0  0  0
 13 47  1  0  0  0
 14 34  1  0  0  0
 14 15  1  0  0  0
 14 48  1  0  0  0
 14 49  1  0  0  0
 15 35  1  0  0  0
 15 50  1  0  0  0
 15 51  1  0  0  0
 16 36  1  0  0  0
 16 35  1  0  0  0
 16 52  1  0  0  0
 16 53  1  0  0  0
 19 20  2  0  0  0
 20 54  1  0  0  0
 21 55  1  0  0  0
 22 56  1  0  0  0
 23 24  1  0  0  0
 24 57  1  0  0  0
 26 27  1  0  0  0
 27 58  1  0  0  0
 27 59  1  0  0  0
 28 29  1  0  0  0
 29 60  1  0  0  0
 29 61  1  0  0  0
 29 62  1  0  0  0
 30 32  2  0  0  0
 30 63  1  0  0  0
 31 32  1  0  0  0
 31 34  1  0  0  0
 32 64  1  0  0  0
 33 65  1  0  0  0
 34 36  1  0  0  0
 36 66  1  0  0  0
 36 67  1  0  0  0
M  END
> <model_server_result.job_id>
5iyGbZy8Bxo1mV8QQj6mVA

> <model_server_result.datetime_utc>
2025-03-17 08:41:13

> <model_server_result.server_version>
0.9.12

> <model_server_result.query_name>
ligand

> <model_server_result.source_id>
pdb-bcif

> <model_server_result.entry_id>
5odx

> <model_server_params.name>
atom_site

> <model_server_params.value>
{"label_asym_id":"B","auth_seq_id":301}

> <model_server_stats.io_time_ms>
24

> <model_server_stats.parse_time_ms>
34

> <model_server_stats.create_model_time_ms>
9

> <model_server_stats.query_time_ms>
698

> <model_server_stats.encode_time_ms>
0

> <model_server_stats.element_count>
36

> <s_m_source_file>
../wget-ligand-expo/5odx_B_9RZ.sdf

> <i_m_source_file_index>
1

> <i_lp_mmshare_version>
54117

> <s_epik_input>
W0NIMl0xW0NIMl1PW0NIMl1bQ0gyXU4xYyhbY0hdW2NIXTIpW2NIXVtjSF1jMk4oW0NIM10pQyg9TyljKGMoW2NIXTMpW09IXSlbY0hdYyhjMzQpYyhuW25IXTQpQyg9TylOKFtDSDJdNSlbQ0gyXVtDSDJdW0NIMl1bQ0BASF01T1tDSDNd

> <s_epik_cmdline>
J2VwaWtfcHl0aG9uJywgJy1waHQnLCAnMC4wJywgJy1waCcsICc3LjQnLCAnLW50JywgJy1tYScsICcyMDAnLCAnLWltYWUnLCAnPGluZmlsZS5tYWU+JywgJy1vbWFlJywgJzxvdXRmaWxlLm1hZT4n

> <r_epik_Ionization_Penalty>
0.104308

> <r_epik_Ionization_Penalty_Charging>
0

> <r_epik_Ionization_Penalty_Neutral>
0.104308

> <r_epik_State_Penalty>
0.0938528

> <r_epik_Charging_Adjusted_Penalty>
0.0938528

> <i_epik_Tot_Q>
0

> <i_epik_Tot_abs_Q>
0

> <s_lp_Variant>
9RZ-1

$$$$
