74E
                    3D
 Schrodinger Suite 2021-2.
 61 64  0  0  1  0            999 V2000
   26.1930   24.7670   14.3830 C   0  0  0  0  0  0
   28.1920   24.3750   12.4120 C   0  0  0  0  0  0
   26.8870   24.1440   12.0060 C   0  0  0  0  0  0
   26.9370   23.7000   10.6390 C   0  0  0  0  0  0
   28.2590   23.6730   10.2840 C   0  0  0  0  0  0
   27.8490   25.7520   15.9850 C   0  0  0  0  0  0
   27.2260   27.0130   13.9310 C   0  0  0  0  0  0
   30.4740   24.2660   11.2740 C   0  0  0  0  0  0
   31.2970   23.8320   12.3130 C   0  0  0  0  0  0
   32.6550   24.1020   12.2780 C   0  0  0  0  0  0
   25.8080   24.3890   12.9730 C   0  0  0  0  0  0
   28.5970   24.9130   13.7510 C   0  0  0  0  0  0
   27.4650   25.6160   14.5120 C   0  0  0  0  0  0
   29.0440   24.0870   11.3440 N   0  0  0  0  0  0
   24.6280   24.3690   12.6510 O   0  0  0  0  0  0
   33.2240   24.7920   11.2010 C   0  0  0  0  0  0
   32.3950   25.2150   10.1360 C   0  0  0  0  0  0
   31.0250   24.9400   10.1830 C   0  0  0  0  0  0
   34.6930   25.1080   11.2280 C   0  0  0  0  0  0
   35.5060   24.2470   11.8300 N   0  0  0  0  0  0
   32.9370   25.9090    9.0580 N   0  0  0  0  0  0
   32.1910   26.4610    7.9320 C   0  0  1  0  0  0
   31.6330   27.8350    8.2940 C   0  0  0  0  0  0
   30.9070   28.4960    7.1150 C   0  0  0  0  0  0
   31.7890   28.5660    5.8810 C   0  0  1  0  0  0
   32.3400   27.1990    5.5150 C   0  0  0  0  0  0
   33.0770   26.5520    6.6960 C   0  0  0  0  0  0
   31.0410   29.0950    4.7830 O   0  0  0  0  0  0
   25.7810   23.3420    9.7370 C   0  0  0  0  0  0
   35.1150   26.1460   10.6860 O   0  0  0  0  0  0
   26.3243   23.8238   14.9335 H   0  0  0  0  0  0
   25.3391   25.3199   14.8015 H   0  0  0  0  0  0
   28.6340   23.3720    9.3170 H   0  0  0  0  0  0
   27.0375   26.2559   16.5304 H   0  0  0  0  0  0
   28.7715   26.3450   16.0702 H   0  0  0  0  0  0
   28.0143   24.7529   16.4145 H   0  0  0  0  0  0
   26.9487   26.9263   12.8701 H   0  0  0  0  0  0
   28.1453   27.6102   14.0222 H   0  0  0  0  0  0
   26.4124   27.5056   14.4836 H   0  0  0  0  0  0
   30.8760   23.2860   13.1440 H   0  0  0  0  0  0
   33.2840   23.7760   13.0930 H   0  0  0  0  0  0
   28.9502   24.0874   14.3863 H   0  0  0  0  0  0
   29.4053   25.6478   13.6217 H   0  0  0  0  0  0
   30.3880   25.2520    9.3690 H   0  0  0  0  0  0
   35.0969   23.3397   12.2985 H   0  0  0  0  0  0
   36.5883   24.4413   11.8600 H   0  0  0  0  0  0
   34.0298   26.0263    9.1042 H   0  0  0  0  0  0
   31.3660   25.7597    7.7384 H   0  0  0  0  0  0
   30.9163   27.7331    9.1222 H   0  0  0  0  0  0
   32.4568   28.4960    8.6013 H   0  0  0  0  0  0
   30.0076   27.9139    6.8654 H   0  0  0  0  0  0
   30.6159   29.5202    7.3913 H   0  0  0  0  0  0
   32.6197   29.2650    6.0581 H   0  0  0  0  0  0
   31.5127   26.5378    5.2178 H   0  0  0  0  0  0
   33.0468   27.3006    4.6783 H   0  0  0  0  0  0
   33.3907   25.5346    6.4194 H   0  0  0  0  0  0
   33.9630   27.1528    6.9489 H   0  0  0  0  0  0
   30.5649   30.0831    4.8671 H   0  0  0  0  0  0
   24.8364   23.4552   10.2892 H   0  0  0  0  0  0
   25.8869   22.2998    9.4014 H   0  0  0  0  0  0
   25.7773   24.0101    8.8631 H   0  0  0  0  0  0
  1 13  1  0  0  0
  1 31  1  0  0  0
  1 32  1  0  0  0
  1 11  1  0  0  0
  2 12  1  0  0  0
  2  3  2  0  0  0
  2 14  1  0  0  0
  3 11  1  0  0  0
  3  4  1  0  0  0
  4  5  2  0  0  0
  4 29  1  0  0  0
  5 14  1  0  0  0
  5 33  1  0  0  0
  6 34  1  0  0  0
  6 35  1  0  0  0
  6 36  1  0  0  0
  6 13  1  0  0  0
  7 13  1  0  0  0
  7 37  1  0  0  0
  7 38  1  0  0  0
  7 39  1  0  0  0
  8 14  1  0  0  0
  8  9  2  0  0  0
  8 18  1  0  0  0
  9 40  1  0  0  0
  9 10  1  0  0  0
 10 41  1  0  0  0
 10 16  2  0  0  0
 11 15  2  0  0  0
 12 13  1  0  0  0
 12 42  1  0  0  0
 12 43  1  0  0  0
 16 19  1  0  0  0
 16 17  1  0  0  0
 17 18  2  0  0  0
 17 21  1  0  0  0
 18 44  1  0  0  0
 19 20  1  0  0  0
 19 30  2  0  0  0
 20 45  1  0  0  0
 20 46  1  0  0  0
 21 47  1  0  0  0
 21 22  1  0  0  0
 22 23  1  0  0  0
 22 48  1  0  0  0
 22 27  1  0  0  0
 23 49  1  0  0  0
 23 50  1  0  0  0
 23 24  1  0  0  0
 24 51  1  0  0  0
 24 52  1  0  0  0
 24 25  1  0  0  0
 25 53  1  0  0  0
 25 26  1  0  0  0
 25 28  1  0  0  0
 26 27  1  0  0  0
 26 54  1  0  0  0
 26 55  1  0  0  0
 27 56  1  0  0  0
 27 57  1  0  0  0
 28 58  1  0  0  0
 29 59  1  0  0  0
 29 60  1  0  0  0
 29 61  1  0  0  0
M  END
> <s_m_source_file>
../wget-ligand-expo/74E_model.sdf

> <i_m_source_file_index>
1

> <i_lp_mmshare_version>
54117

> <s_epik_input>
W0NIM11DKFtDSDNdKShbQ0gyXTEpW0NIMl1DKD1PKWMoYzEyKWMoW0NIM10pW2NIXW4yLWMzW2NIXVtjSF1jKEMoPU8pW05IMl0pYyhbY0hdMylbTkhdW0NASF00W0NIMl1bQ0gyXVtDQEhdKFtPSF0pW0NIMl1bQ0gyXTQ=

> <s_epik_cmdline>
J2VwaWtfcHl0aG9uJywgJy1waHQnLCAnMC4wJywgJy1waCcsICc3LjQnLCAnLW50JywgJy1tYScsICcyMDAnLCAnLWltYWUnLCAnPGluZmlsZS5tYWU+JywgJy1vbWFlJywgJzxvdXRmaWxlLm1hZT4n

> <r_lp_tautomer_probability>
1

> <r_epik_Ionization_Penalty>
5.09102e-06

> <r_epik_Ionization_Penalty_Charging>
0

> <r_epik_Ionization_Penalty_Neutral>
5.09102e-06

> <r_epik_State_Penalty>
-0

> <r_epik_Charging_Adjusted_Penalty>
0

> <i_epik_Tot_Q>
0

> <i_epik_Tot_abs_Q>
0

> <s_lp_Variant>
74E-1

$$$$
