B5Q
                    3D
 Schrodinger Suite 2021-2.
 55 59  0  0  1  0            999 V2000
  -33.2090  -10.4220  -26.0720 C   0  0  0  0  0  0
  -31.6450  -11.0580  -24.1990 C   0  0  0  0  0  0
  -31.1620  -10.0410  -23.7220 O   0  0  0  0  0  0
  -32.1770   -9.7700  -26.7890 C   0  0  0  0  0  0
  -34.7890   -9.8760  -27.8910 C   0  0  0  0  0  0
  -32.4580   -9.1940  -28.0270 C   0  0  0  0  0  0
  -33.7690   -9.2660  -28.5710 C   0  0  0  0  0  0
  -35.2630  -11.6390  -24.7570 C   0  0  0  0  0  0
  -31.3660   -8.5220  -28.7860 C   0  0  0  0  0  0
  -29.5420  -12.3790  -23.7670 C   0  0  0  0  0  0
  -29.0240  -13.6850  -24.3360 C   0  0  0  0  0  0
  -27.7640  -14.2620  -24.2980 C   0  0  0  0  0  0
  -27.5610  -15.4920  -24.8940 C   0  0  0  0  0  0
  -28.6080  -16.1540  -25.5390 C   0  0  0  0  0  0
  -30.3380   -9.3330  -29.2990 C   0  0  0  0  0  0
  -30.2570   -6.5860  -29.7450 C   0  0  0  0  0  0
  -31.2790   -5.9340  -26.2650 C   0  0  0  0  0  0
  -30.9210  -12.2040  -24.2440 N   0  0  0  0  0  0
  -33.0080  -11.0250  -24.7940 C   0  0  0  0  0  0
  -34.5320  -10.4750  -26.6340 C   0  0  0  0  0  0
  -34.0470  -11.6230  -24.2000 N   0  0  0  0  0  0
  -35.5010  -11.0970  -25.9440 N   0  0  0  0  0  0
  -36.3140  -12.2510  -24.1020 N   0  0  0  0  0  0
  -31.3260  -13.5120  -24.8070 C   0  0  0  0  0  0
  -30.0810  -14.3520  -24.9510 C   0  0  0  0  0  0
  -29.8690  -15.5830  -25.5610 C   0  0  0  0  0  0
  -29.2800   -8.7790  -30.0100 C   0  0  0  0  0  0
  -29.2460   -7.4060  -30.2470 C   0  0  0  0  0  0
  -31.3220   -7.1220  -29.0220 C   0  0  0  0  0  0
  -32.3600   -6.1410  -28.4960 C   0  0  0  0  0  0
  -32.5140   -6.2200  -27.0260 N   0  3  0  0  0  0
  -31.1790   -9.7190  -26.3800 H   0  0  0  0  0  0
  -35.7840   -9.9000  -28.3110 H   0  0  0  0  0  0
  -33.9650   -8.8310  -29.5400 H   0  0  0  0  0  0
  -29.5185  -12.4229  -22.6681 H   0  0  0  0  0  0
  -28.9075  -11.5503  -24.1145 H   0  0  0  0  0  0
  -26.9470  -13.7540  -23.8060 H   0  0  0  0  0  0
  -26.5820  -15.9460  -24.8610 H   0  0  0  0  0  0
  -28.4350  -17.1060  -26.0180 H   0  0  0  0  0  0
  -30.3710  -10.4000  -29.1380 H   0  0  0  0  0  0
  -30.2140   -5.5210  -29.9190 H   0  0  0  0  0  0
  -31.4852   -6.0151  -25.1875 H   0  0  0  0  0  0
  -30.9332   -4.9158  -26.4965 H   0  0  0  0  0  0
  -30.4999   -6.6584  -26.5448 H   0  0  0  0  0  0
  -36.1542  -12.7113  -23.1158 H   0  0  0  0  0  0
  -37.3107  -12.2780  -24.5666 H   0  0  0  0  0  0
  -32.0403  -13.9987  -24.1266 H   0  0  0  0  0  0
  -31.8002  -13.3582  -25.7875 H   0  0  0  0  0  0
  -30.6860  -16.0930  -26.0510 H   0  0  0  0  0  0
  -28.4860   -9.4110  -30.3780 H   0  0  0  0  0  0
  -28.4370   -6.9770  -30.8190 H   0  0  0  0  0  0
  -32.0575   -5.1149  -28.7520 H   0  0  0  0  0  0
  -33.3363   -6.3602  -28.9529 H   0  0  0  0  0  0
  -33.2691   -5.4910  -26.6968 H   0  0  0  0  0  0
  -32.8359   -7.2336  -26.7450 H   0  0  0  0  0  0
  1 19  1  0  0  0
  1  4  2  0  0  0
  1 20  1  0  0  0
  2  3  2  0  0  0
  2 18  1  0  0  0
  2 19  1  0  0  0
  4 32  1  0  0  0
  4  6  1  0  0  0
  5 20  2  0  0  0
  5 33  1  0  0  0
  5  7  1  0  0  0
  6  7  2  0  0  0
  6  9  1  0  0  0
  7 34  1  0  0  0
  8 21  1  0  0  0
  8 23  1  0  0  0
  8 22  2  0  0  0
  9 15  2  0  0  0
  9 29  1  0  0  0
 10 35  1  0  0  0
 10 36  1  0  0  0
 10 11  1  0  0  0
 10 18  1  0  0  0
 11 12  1  0  0  0
 11 25  2  0  0  0
 12 37  1  0  0  0
 12 13  2  0  0  0
 13 38  1  0  0  0
 13 14  1  0  0  0
 14 39  1  0  0  0
 14 26  2  0  0  0
 15 40  1  0  0  0
 15 27  1  0  0  0
 16 29  2  0  0  0
 16 41  1  0  0  0
 16 28  1  0  0  0
 17 42  1  0  0  0
 17 43  1  0  0  0
 17 44  1  0  0  0
 17 31  1  0  0  0
 18 24  1  0  0  0
 19 21  2  0  0  0
 20 22  1  0  0  0
 23 45  1  0  0  0
 23 46  1  0  0  0
 24 47  1  0  0  0
 24 48  1  0  0  0
 24 25  1  0  0  0
 25 26  1  0  0  0
 26 49  1  0  0  0
 27 50  1  0  0  0
 27 28  2  0  0  0
 28 51  1  0  0  0
 29 30  1  0  0  0
 30 31  1  0  0  0
 30 52  1  0  0  0
 30 53  1  0  0  0
 31 54  1  0  0  0
 31 55  1  0  0  0
M  CHG  1  31   1
M  END
> <s_m_source_file>
../wget-ligand-expo/B5Q_model.sdf

> <i_m_source_file_index>
1

> <i_lp_mmshare_version>
54117

> <s_epik_input>
W0NIM11bTkhdW0NIMl1jMVtjSF1bY0hdW2NIXVtjSF1jMS1jKFtjSF0yKVtjSF1bY0hdYyhjMjMpbmMoW05IMl0pbmMzQyg9TylOKFtDSDJdNClbQ0gyXWMoYzQ1KVtjSF1bY0hdW2NIXVtjSF01

> <s_epik_cmdline>
J2VwaWtfcHl0aG9uJywgJy1waHQnLCAnMC4wJywgJy1waCcsICc3LjQnLCAnLW50JywgJy1tYScsICcyMDAnLCAnLWltYWUnLCAnPGluZmlsZS5tYWU+JywgJy1vbWFlJywgJzxvdXRmaWxlLm1hZT4n

> <r_epik_Ionization_Penalty>
0.0482396

> <r_epik_Ionization_Penalty_Charging>
0.0482209

> <r_epik_Ionization_Penalty_Neutral>
1.86582e-05

> <r_epik_State_Penalty>
0.0411137

> <r_epik_Charging_Adjusted_Penalty>
0.0893346

> <i_epik_Tot_Q>
1

> <i_epik_Tot_abs_Q>
1

> <s_lp_Variant>
B5Q-1

$$$$
