PU1
                    3D
 Schrodinger Suite 2021-2.
 51 53  0  0  1  0            999 V2000
    2.2390   31.7810   24.8120 Cl  0  0  0  0  0  0
    3.7780   32.5970   24.8890 C   0  0  0  0  0  0
    4.8990   31.9510   24.3320 C   0  0  0  0  0  0
    4.7380   30.8560   23.5230 O   0  0  0  0  0  0
    4.8740   29.5380   24.0000 C   0  0  0  0  0  0
    6.1510   32.5790   24.3590 C   0  0  0  0  0  0
    7.2630   31.9610   23.8480 O   0  0  0  0  0  0
    7.4940   31.8830   22.4340 C   0  0  0  0  0  0
    6.3110   33.7850   25.0450 C   0  0  0  0  0  0
    7.5700   34.3150   25.1280 O   0  0  0  0  0  0
    7.7960   35.4490   25.9820 C   0  0  0  0  0  0
    5.1960   34.4130   25.6190 C   0  0  0  0  0  0
    3.9340   33.8310   25.5540 C   0  0  0  0  0  0
    2.8050   34.5730   26.2490 C   0  0  0  0  0  0
    1.6680   34.8760   25.2980 C   0  0  0  0  0  0
    0.4500   34.4990   25.5270 N   0  0  0  0  0  0
   -0.3260   34.8510   24.4940 C   0  0  0  0  0  0
   -1.6800   34.6860   24.1920 C   0  0  0  0  0  0
   -2.5320   34.1060   25.1110 N   0  0  0  0  0  0
    0.4980   35.5240   23.5860 C   0  0  0  0  0  0
   -0.0110   35.9710   22.4590 N   0  0  0  0  0  0
   -1.2610   35.7390   22.1700 C   0  0  0  0  0  0
   -2.1110   35.1440   23.0100 N   0  0  0  0  0  0
    1.7500   35.5520   24.1150 N   0  0  0  0  0  0
    2.9140   36.2090   23.4860 C   0  0  0  0  0  0
    2.8750   37.7330   23.6810 C   0  0  0  0  0  0
    2.9620   38.1330   25.1540 C   0  0  0  0  0  0
    4.3350   38.0650   25.7120 C   0  0  0  0  0  0
    5.4100   38.0330   26.2000 C   0  0  0  0  0  0
   -1.6560   36.1950   20.9810 F   0  0  0  0  0  0
    4.7015   28.8302   23.1759 H   0  0  0  0  0  0
    4.1378   29.3589   24.7974 H   0  0  0  0  0  0
    5.8890   29.3955   24.3993 H   0  0  0  0  0  0
    8.4372   31.3494   22.2455 H   0  0  0  0  0  0
    7.5575   32.8986   22.0163 H   0  0  0  0  0  0
    6.6644   31.3412   21.9563 H   0  0  0  0  0  0
    8.8547   35.7427   25.9290 H   0  0  0  0  0  0
    7.5404   35.1841   27.0186 H   0  0  0  0  0  0
    7.1658   36.2880   25.6519 H   0  0  0  0  0  0
    5.3099   35.3626   26.1208 H   0  0  0  0  0  0
    2.4138   33.9573   27.0723 H   0  0  0  0  0  0
    3.1840   35.5243   26.6507 H   0  0  0  0  0  0
   -2.1392   33.7418   26.0717 H   0  0  0  0  0  0
   -3.6035   34.0082   24.8823 H   0  0  0  0  0  0
    3.8404   35.8242   23.9373 H   0  0  0  0  0  0
    2.9162   35.9964   22.4067 H   0  0  0  0  0  0
    3.7239   38.1920   23.1531 H   0  0  0  0  0  0
    1.9329   38.1306   23.2756 H   0  0  0  0  0  0
    2.6114   39.1687   25.2740 H   0  0  0  0  0  0
    2.3316   37.4606   25.7544 H   0  0  0  0  0  0
    6.4113   38.0032   26.6545 H   0  0  0  0  0  0
  1  2  1  0  0  0
  2  3  2  0  0  0
  2 13  1  0  0  0
  3  4  1  0  0  0
  3  6  1  0  0  0
  4  5  1  0  0  0
  5 31  1  0  0  0
  5 32  1  0  0  0
  5 33  1  0  0  0
  6  7  1  0  0  0
  6  9  2  0  0  0
  7  8  1  0  0  0
  8 34  1  0  0  0
  8 35  1  0  0  0
  8 36  1  0  0  0
  9 10  1  0  0  0
  9 12  1  0  0  0
 10 11  1  0  0  0
 11 37  1  0  0  0
 11 38  1  0  0  0
 11 39  1  0  0  0
 12 13  2  0  0  0
 12 40  1  0  0  0
 13 14  1  0  0  0
 14 15  1  0  0  0
 14 41  1  0  0  0
 14 42  1  0  0  0
 15 16  2  0  0  0
 15 24  1  0  0  0
 16 17  1  0  0  0
 17 18  2  0  0  0
 17 20  1  0  0  0
 18 19  1  0  0  0
 18 23  1  0  0  0
 19 43  1  0  0  0
 19 44  1  0  0  0
 20 21  2  0  0  0
 20 24  1  0  0  0
 21 22  1  0  0  0
 22 23  2  0  0  0
 22 30  1  0  0  0
 24 25  1  0  0  0
 25 26  1  0  0  0
 25 45  1  0  0  0
 25 46  1  0  0  0
 26 27  1  0  0  0
 26 47  1  0  0  0
 26 48  1  0  0  0
 27 28  1  0  0  0
 27 49  1  0  0  0
 27 50  1  0  0  0
 28 29  3  0  0  0
 29 51  1  0  0  0
M  END
> <model_server_result.job_id>
4odIpxNHpRdfsC5utFWJlg

> <model_server_result.datetime_utc>
2025-03-17 08:41:33

> <model_server_result.server_version>
0.9.12

> <model_server_result.query_name>
ligand

> <model_server_result.source_id>
pdb-bcif

> <model_server_result.entry_id>
6el5

> <model_server_params.name>
atom_site

> <model_server_params.value>
{"label_asym_id":"B","auth_seq_id":301}

> <model_server_stats.io_time_ms>
21

> <model_server_stats.parse_time_ms>
8

> <model_server_stats.create_model_time_ms>
3

> <model_server_stats.query_time_ms>
354

> <model_server_stats.encode_time_ms>
0

> <model_server_stats.element_count>
30

> <s_m_source_file>
../wget-ligand-expo/6el5_B_PU1.sdf

> <i_m_source_file_index>
1

> <i_lp_mmshare_version>
54117

> <s_epik_input>
Q2xjMWMoT1tDSDNdKWMoT1tDSDNdKWMoT1tDSDNdKVtjSF1jMVtDSDJdYyhuMiluKFtDSDJdW0NIMl1bQ0gyXUMjW0NIXSljKGMyMyluYyhGKW5jM1tOSDJd

> <s_epik_cmdline>
J2VwaWtfcHl0aG9uJywgJy1waHQnLCAnMC4wJywgJy1waCcsICc3LjQnLCAnLW50JywgJy1tYScsICcyMDAnLCAnLWltYWUnLCAnPGluZmlsZS5tYWU+JywgJy1vbWFlJywgJzxvdXRmaWxlLm1hZT4n

> <r_lp_tautomer_probability>
1

> <r_epik_Ionization_Penalty>
8.69433e-06

> <r_epik_Ionization_Penalty_Charging>
0

> <r_epik_Ionization_Penalty_Neutral>
8.69433e-06

> <r_epik_State_Penalty>
-0

> <r_epik_Charging_Adjusted_Penalty>
0

> <i_epik_Tot_Q>
0

> <i_epik_Tot_abs_Q>
0

> <s_lp_Variant>
PU1-1

$$$$
