P4A
                    3D
 Schrodinger Suite 2021-2.
 38 40  0  0  1  0            999 V2000
   63.4430   36.0480   22.1570 N   0  0  0  0  0  0
   63.2220   34.9920   23.0440 N   0  0  0  0  0  0
   64.0300   35.1520   24.0840 C   0  0  0  0  0  0
   64.7570   36.3780   23.9040 C   0  0  0  0  0  0
   64.3640   36.8890   22.6890 C   0  0  0  0  0  0
   64.0860   34.2760   25.2830 C   0  0  0  0  0  0
   65.7350   36.9840   24.8710 C   0  0  0  0  0  0
   64.8470   38.1530   22.0170 C   0  0  0  0  0  0
   67.1070   37.0390   24.5330 C   0  0  0  0  0  0
   68.0280   37.5920   25.4160 C   0  0  0  0  0  0
   67.6260   38.0630   26.6740 C   0  0  0  0  0  0
   66.2640   37.9920   27.0340 C   0  0  0  0  0  0
   65.3290   37.4280   26.1510 C   0  0  0  0  0  0
   62.8820   33.8680   25.9130 C   0  0  0  0  0  0
   62.9200   33.0990   27.0780 C   0  0  0  0  0  0
   64.1620   32.6860   27.5810 C   0  0  0  0  0  0
   65.3590   33.0710   26.9480 C   0  0  0  0  0  0
   65.3280   33.8520   25.8060 C   0  0  0  0  0  0
   64.2330   31.9450   28.7140 O   0  0  0  0  0  0
   61.6830   34.2380   25.3980 O   0  0  0  0  0  0
   68.6050   38.6090   27.4710 O   0  0  0  0  0  0
   68.3020   39.1960   28.7430 C   0  0  0  0  0  0
   62.8975   36.0880   21.2026 H   0  0  0  0  0  0
   64.3325   38.2750   21.0524 H   0  0  0  0  0  0
   65.9320   38.0869   21.8482 H   0  0  0  0  0  0
   64.6282   39.0174   22.6612 H   0  0  0  0  0  0
   67.4454   36.6501   23.5840 H   0  0  0  0  0  0
   69.0687   37.6631   25.1363 H   0  0  0  0  0  0
   65.9379   38.3720   27.9909 H   0  0  0  0  0  0
   64.2963   37.3339   26.4527 H   0  0  0  0  0  0
   62.0012   32.8307   27.5781 H   0  0  0  0  0  0
   66.3095   32.7568   27.3533 H   0  0  0  0  0  0
   66.2465   34.1375   25.3149 H   0  0  0  0  0  0
   63.3107   31.6327   29.2257 H   0  0  0  0  0  0
   61.6417   34.8438   24.4807 H   0  0  0  0  0  0
   69.2284   39.5674   29.2054 H   0  0  0  0  0  0
   67.8440   38.4389   29.3964 H   0  0  0  0  0  0
   67.6011   40.0322   28.6033 H   0  0  0  0  0  0
  1  2  1  0  0  0
  1  5  1  0  0  0
  1 23  1  0  0  0
  2  3  2  0  0  0
  3  4  1  0  0  0
  3  6  1  0  0  0
  4  5  2  0  0  0
  4  7  1  0  0  0
  5  8  1  0  0  0
  6 14  2  0  0  0
  6 18  1  0  0  0
  7  9  2  0  0  0
  7 13  1  0  0  0
  8 24  1  0  0  0
  8 25  1  0  0  0
  8 26  1  0  0  0
  9 10  1  0  0  0
  9 27  1  0  0  0
 10 11  2  0  0  0
 10 28  1  0  0  0
 11 12  1  0  0  0
 11 21  1  0  0  0
 12 13  2  0  0  0
 12 29  1  0  0  0
 13 30  1  0  0  0
 14 15  1  0  0  0
 14 20  1  0  0  0
 15 16  2  0  0  0
 15 31  1  0  0  0
 16 17  1  0  0  0
 16 19  1  0  0  0
 17 18  2  0  0  0
 17 32  1  0  0  0
 18 33  1  0  0  0
 19 34  1  0  0  0
 20 35  1  0  0  0
 21 22  1  0  0  0
 22 36  1  0  0  0
 22 37  1  0  0  0
 22 38  1  0  0  0
M  END
> <model_server_result.job_id>
UUuWEBxK2IloFS0Yb97ZNg

> <model_server_result.datetime_utc>
2025-03-17 08:41:51

> <model_server_result.server_version>
0.9.12

> <model_server_result.query_name>
ligand

> <model_server_result.source_id>
pdb-bcif

> <model_server_result.entry_id>
6eln

> <model_server_params.name>
atom_site

> <model_server_params.value>
{"label_asym_id":"B","auth_seq_id":301}

> <model_server_stats.io_time_ms>
9

> <model_server_stats.parse_time_ms>
9

> <model_server_stats.create_model_time_ms>
2

> <model_server_stats.query_time_ms>
247

> <model_server_stats.encode_time_ms>
0

> <model_server_stats.element_count>
22

> <s_m_source_file>
../wget-ligand-expo/6eln_B_P4A.sdf

> <i_m_source_file_index>
1

> <i_lp_mmshare_version>
54117

> <s_epik_input>
W2NIXTFbY0hdYyhbT0hdKVtjSF1jKFtPSF0pYzEtYzJuW25IXWMoW0NIM10pYzItYzNbY0hdW2NIXWMoW2NIXVtjSF0zKU9bQ0gzXQ==

> <s_epik_cmdline>
J2VwaWtfcHl0aG9uJywgJy1waHQnLCAnMC4wJywgJy1waCcsICc3LjQnLCAnLW50JywgJy1tYScsICcyMDAnLCAnLWltYWUnLCAnPGluZmlsZS5tYWU+JywgJy1vbWFlJywgJzxvdXRmaWxlLm1hZT4n

> <r_lp_tautomer_probability>
1

> <r_epik_Ionization_Penalty>
0.0178297

> <r_epik_Ionization_Penalty_Charging>
0

> <r_epik_Ionization_Penalty_Neutral>
0.0178297

> <r_epik_State_Penalty>
-0

> <r_epik_Charging_Adjusted_Penalty>
0

> <i_epik_Tot_Q>
0

> <i_epik_Tot_abs_Q>
0

> <s_lp_Variant>
P4A-1

$$$$
