BAW
                    3D
 Schrodinger Suite 2021-2.
 40 42  0  0  1  0            999 V2000
   64.6630   32.3490   27.3720 C   0  0  0  0  0  0
   63.4360   32.8660   26.9730 C   0  0  0  0  0  0
   63.3540   33.6990   25.8680 C   0  0  0  0  0  0
   67.1640   32.0540   26.9330 C   0  0  0  0  0  0
   67.3100   30.7270   26.1510 C   0  0  0  0  0  0
   64.4110   34.9630   24.0150 C   0  0  0  0  0  0
   64.6980   36.7090   22.6170 C   0  0  0  0  0  0
   65.0490   36.2330   23.8650 C   0  0  0  0  0  0
   65.9750   36.8450   24.8660 C   0  0  0  0  0  0
   67.7630   37.9930   26.7150 C   0  0  0  0  0  0
   66.4180   37.8480   27.0410 C   0  0  0  0  0  0
   65.5240   37.2790   26.1230 C   0  0  0  0  0  0
   64.5090   34.0590   25.1720 C   0  0  0  0  0  0
   65.7490   33.5380   25.5580 C   0  0  0  0  0  0
   65.8160   32.6440   26.6370 C   0  0  0  0  0  0
   64.6760   31.5310   28.4570 O   0  0  0  0  0  0
   62.1370   34.1810   25.5060 O   0  0  0  0  0  0
   63.6340   34.7630   22.9810 N   0  0  0  0  0  0
   63.7840   35.8550   22.1010 N   0  0  0  0  0  0
   67.3270   37.0050   24.5390 C   0  0  0  0  0  0
   68.2090   37.5980   25.4550 C   0  0  0  0  0  0
   67.7260   36.6450   23.2960 F   0  0  0  0  0  0
   65.0800   38.0270   21.9790 C   0  0  0  0  0  0
   62.5420   32.6180   27.5260 H   0  0  0  0  0  0
   67.2557   31.8562   28.0112 H   0  0  0  0  0  0
   67.9537   32.7529   26.6200 H   0  0  0  0  0  0
   68.2952   30.2847   26.3602 H   0  0  0  0  0  0
   67.2183   30.9248   25.0728 H   0  0  0  0  0  0
   66.5203   30.0281   26.4641 H   0  0  0  0  0  0
   68.4550   38.4080   27.4320 H   0  0  0  0  0  0
   66.0610   38.1750   28.0060 H   0  0  0  0  0  0
   64.4810   37.1740   26.3840 H   0  0  0  0  0  0
   66.6470   33.8220   25.0300 H   0  0  0  0  0  0
   63.7435   31.3281   29.0040 H   0  0  0  0  0  0
   61.2388   33.8849   26.0678 H   0  0  0  0  0  0
   63.0155   33.8551   22.9252 H   0  0  0  0  0  0
   69.2430   37.7500   25.1810 H   0  0  0  0  0  0
   65.8410   38.5264   22.5966 H   0  0  0  0  0  0
   64.1901   38.6692   21.9031 H   0  0  0  0  0  0
   65.4865   37.8434   20.9735 H   0  0  0  0  0  0
  1 16  1  0  0  0
  1  2  1  0  0  0
  1 15  2  0  0  0
  2 24  1  0  0  0
  2  3  2  0  0  0
  3 13  1  0  0  0
  3 17  1  0  0  0
  4 25  1  0  0  0
  4 26  1  0  0  0
  4  5  1  0  0  0
  4 15  1  0  0  0
  5 27  1  0  0  0
  5 28  1  0  0  0
  5 29  1  0  0  0
  6 13  1  0  0  0
  6  8  2  0  0  0
  6 18  1  0  0  0
  7  8  1  0  0  0
  7 19  2  0  0  0
  7 23  1  0  0  0
  8  9  1  0  0  0
  9 12  1  0  0  0
  9 20  2  0  0  0
 10 11  1  0  0  0
 10 30  1  0  0  0
 10 21  2  0  0  0
 11 31  1  0  0  0
 11 12  2  0  0  0
 12 32  1  0  0  0
 13 14  2  0  0  0
 14 15  1  0  0  0
 14 33  1  0  0  0
 16 34  1  0  0  0
 17 35  1  0  0  0
 18 36  1  0  0  0
 18 19  1  0  0  0
 20 21  1  0  0  0
 20 22  1  0  0  0
 21 37  1  0  0  0
 23 38  1  0  0  0
 23 39  1  0  0  0
 23 40  1  0  0  0
M  END
> <s_m_source_file>
../wget-ligand-expo/BAW_model.sdf

> <i_m_source_file_index>
1

> <i_lp_mmshare_version>
54117

> <s_epik_input>
W0NIM11bQ0gyXWMxW2NIXWMoYyhbT0hdKVtjSF1jMVtPSF0pLWMyYyhjKFtDSDNdKW5bbkhdMiktYzNbY0hdW2NIXVtjSF1bY0hdYzNG

> <s_epik_cmdline>
J2VwaWtfcHl0aG9uJywgJy1waHQnLCAnMC4wJywgJy1waCcsICc3LjQnLCAnLW50JywgJy1tYScsICcyMDAnLCAnLWltYWUnLCAnPGluZmlsZS5tYWU+JywgJy1vbWFlJywgJzxvdXRmaWxlLm1hZT4n

> <r_lp_tautomer_probability>
1

> <r_epik_Ionization_Penalty>
0.0142485

> <r_epik_Ionization_Penalty_Charging>
0

> <r_epik_Ionization_Penalty_Neutral>
0.0142485

> <r_epik_State_Penalty>
-0

> <r_epik_Charging_Adjusted_Penalty>
0

> <i_epik_Tot_Q>
0

> <i_epik_Tot_abs_Q>
0

> <s_lp_Variant>
BAW-1

$$$$
