BA8
                    3D
 Schrodinger Suite 2021-2.
 46 49  0  0  1  0            999 V2000
    1.2430   33.7370   25.6920 C   0  0  0  0  0  0
    0.0670   33.3460   26.3560 C   0  0  0  0  0  0
   -1.1860   33.7240   25.8570 C   0  0  0  0  0  0
   -0.1110   35.8300   22.8520 C   0  0  0  0  0  0
   -0.6690   35.6420   21.6070 C   0  0  0  0  0  0
   -0.3960   36.7870   20.8510 C   0  0  0  0  0  0
    1.0910   37.6900   23.9870 C   0  0  0  0  0  0
    2.4810   37.6350   24.1380 C   0  0  0  0  0  0
    3.1170   38.1740   25.2670 C   0  0  0  0  0  0
    2.3380   38.7410   26.2720 C   0  0  0  0  0  0
    2.6130   33.2690   26.1810 C   0  0  0  0  0  0
    6.2470   30.2720   25.1000 C   0  0  0  0  0  0
    7.0470   32.3700   25.9850 C   0  0  0  0  0  0
    5.8340   32.9030   25.8110 N   0  0  0  0  0  0
    4.9940   30.8810   24.9090 C   0  0  0  0  0  0
   -1.2790   34.5260   24.7160 C   0  0  0  0  0  0
   -0.1090   34.9220   24.0330 C   0  0  0  0  0  0
    1.1400   34.5120   24.5430 C   0  0  0  0  0  0
    0.1340   32.6520   27.5230 O   0  0  0  0  0  0
    0.2890   37.6280   21.5810 N   0  0  0  0  0  0
    0.4570   37.0840   22.8660 N   0  0  0  0  0  0
    0.9450   38.7840   26.1310 C   0  0  0  0  0  0
    0.3130   38.2250   25.0270 C   0  0  0  0  0  0
    3.4130   36.8970   22.8810 Cl  0  0  0  0  0  0
   -2.5090   34.8400   24.2490 O   0  0  0  0  0  0
    7.2900   31.0400   25.6300 C   0  0  0  0  0  0
    4.8150   32.2080   25.3050 C   0  0  0  0  0  0
    3.4960   32.8810   24.9890 C   0  0  0  0  0  0
   -2.0850   33.3940   26.3560 H   0  0  0  0  0  0
   -1.2160   34.7720   21.2760 H   0  0  0  0  0  0
   -0.7020   36.9500   19.8280 H   0  0  0  0  0  0
    4.1930   38.1490   25.3550 H   0  0  0  0  0  0
    2.8060   39.1460   27.1570 H   0  0  0  0  0  0
    3.0998   34.0814   26.7405 H   0  0  0  0  0  0
    2.4892   32.3949   26.8372 H   0  0  0  0  0  0
    6.4010   29.2340   24.8430 H   0  0  0  0  0  0
    7.8430   32.9690   26.4020 H   0  0  0  0  0  0
    4.1800   30.3290   24.4620 H   0  0  0  0  0  0
    2.0410   34.8080   24.0270 H   0  0  0  0  0  0
    1.1110   32.3484   27.9271 H   0  0  0  0  0  0
    0.3500   39.2610   26.8960 H   0  0  0  0  0  0
   -0.7650   38.2020   24.9690 H   0  0  0  0  0  0
   -3.4051   34.5192   24.8005 H   0  0  0  0  0  0
    8.2720   30.6100   25.7630 H   0  0  0  0  0  0
    3.6836   33.8165   24.4415 H   0  0  0  0  0  0
    2.8814   32.2108   24.3700 H   0  0  0  0  0  0
  1 11  1  0  0  0
  1  2  2  0  0  0
  1 18  1  0  0  0
  2 19  1  0  0  0
  2  3  1  0  0  0
  3 29  1  0  0  0
  3 16  2  0  0  0
  4 21  1  0  0  0
  4 17  1  0  0  0
  4  5  2  0  0  0
  5 30  1  0  0  0
  5  6  1  0  0  0
  6 20  2  0  0  0
  6 31  1  0  0  0
  7  8  2  0  0  0
  7 23  1  0  0  0
  7 21  1  0  0  0
  8  9  1  0  0  0
  8 24  1  0  0  0
  9 10  2  0  0  0
  9 32  1  0  0  0
 10 33  1  0  0  0
 10 22  1  0  0  0
 11 34  1  0  0  0
 11 35  1  0  0  0
 11 28  1  0  0  0
 12 26  1  0  0  0
 12 36  1  0  0  0
 12 15  2  0  0  0
 13 37  1  0  0  0
 13 14  1  0  0  0
 13 26  2  0  0  0
 14 27  2  0  0  0
 15 27  1  0  0  0
 15 38  1  0  0  0
 16 17  1  0  0  0
 16 25  1  0  0  0
 17 18  2  0  0  0
 18 39  1  0  0  0
 19 40  1  0  0  0
 20 21  1  0  0  0
 22 41  1  0  0  0
 22 23  2  0  0  0
 23 42  1  0  0  0
 25 43  1  0  0  0
 26 44  1  0  0  0
 27 28  1  0  0  0
 28 45  1  0  0  0
 28 46  1  0  0  0
M  END
> <s_m_source_file>
../wget-ligand-expo/BA8_model.sdf

> <i_m_source_file_index>
1

> <i_lp_mmshare_version>
54117

> <s_epik_input>
W2NIXTFbY0hdW2NIXVtjSF1uYzFbQ0gyXVtDSDJdYzJjKFtPSF0pW2NIXWMoW09IXSljKFtjSF0yKS1jM1tjSF1bY0hdbm4zLWM0YyhDbClbY0hdW2NIXVtjSF1bY0hdNA==

> <s_epik_cmdline>
J2VwaWtfcHl0aG9uJywgJy1waHQnLCAnMC4wJywgJy1waCcsICc3LjQnLCAnLW50JywgJy1tYScsICcyMDAnLCAnLWltYWUnLCAnPGluZmlsZS5tYWU+JywgJy1vbWFlJywgJzxvdXRmaWxlLm1hZT4n

> <r_lp_tautomer_probability>
1

> <r_epik_Ionization_Penalty>
0.0350401

> <r_epik_Ionization_Penalty_Charging>
0

> <r_epik_Ionization_Penalty_Neutral>
0.0350401

> <r_epik_State_Penalty>
-0

> <r_epik_Charging_Adjusted_Penalty>
0

> <i_epik_Tot_Q>
0

> <i_epik_Tot_abs_Q>
0

> <s_lp_Variant>
BA8-1

$$$$
