C4T
                    3D
 Schrodinger Suite 2021-2.
 49 52  0  0  1  0            999 V2000
   -0.8020   33.8450   23.5170 C   0  0  0  0  0  0
   -1.9690   33.5610   24.2640 C   0  0  0  0  0  0
   -1.9010   32.8990   25.4630 C   0  0  0  0  0  0
   -3.1810   33.8770   23.7680 O   0  0  0  0  0  0
    0.5400   32.8810   25.2620 C   0  0  0  0  0  0
   -0.6500   32.5790   25.9860 C   0  0  0  0  0  0
    1.6400   32.4000   26.0820 C   0  0  0  0  0  0
    3.1220   32.5580   25.7970 C   0  0  0  0  0  0
    3.7090   31.6340   24.7590 C   0  0  0  0  0  0
    4.2500   32.1790   23.5920 C   0  0  0  0  0  0
    4.8820   31.3490   22.6590 C   0  0  0  0  0  0
    3.8370   30.2640   25.0130 C   0  0  0  0  0  0
   -0.5170   36.4920   20.7720 C   0  0  0  0  0  0
   -0.1690   36.7330   23.2420 C   0  0  0  0  0  0
    2.3000   36.3110   22.9500 C   0  0  0  0  0  0
    3.5690   36.2390   23.4950 C   0  0  0  0  0  0
    0.4680   33.4750   23.9990 C   0  0  0  0  0  0
   -0.8740   34.5540   22.2180 C   0  0  0  0  0  0
   -0.4780   35.8570   22.0900 N   0  0  0  0  0  0
   -1.2220   33.9180   21.2390 O   0  0  0  0  0  0
   -0.2710   31.9880   27.1530 N   0  0  0  0  0  0
    1.1190   31.9600   27.1850 N   0  0  0  0  0  0
    4.9900   29.9750   22.9120 C   0  0  0  0  0  0
    4.4810   29.4380   24.0930 C   0  0  0  0  0  0
    1.2300   36.6780   23.7690 C   0  0  0  0  0  0
    3.7610   36.5410   24.8470 C   0  0  0  0  0  0
    2.6920   36.8830   25.6740 C   0  0  0  0  0  0
    1.4190   36.9690   25.1200 C   0  0  0  0  0  0
    5.3630   36.4520   25.5010 Cl  0  0  0  0  0  0
   -2.8030   32.6300   25.9930 H   0  0  0  0  0  0
   -3.2610   34.4080   22.8080 H   0  0  0  0  0  0
    3.3194   33.5787   25.4374 H   0  0  0  0  0  0
    3.6940   32.3770   26.7190 H   0  0  0  0  0  0
    4.1810   33.2410   23.4100 H   0  0  0  0  0  0
    5.2850   31.7660   21.7480 H   0  0  0  0  0  0
    3.4360   29.8450   25.9240 H   0  0  0  0  0  0
   -0.7553   35.7371   20.0082 H   0  0  0  0  0  0
    0.4632   36.9398   20.5516 H   0  0  0  0  0  0
   -1.2882   37.2763   20.7656 H   0  0  0  0  0  0
   -0.8718   36.4420   24.0366 H   0  0  0  0  0  0
   -0.3955   37.7567   22.9091 H   0  0  0  0  0  0
    2.1390   36.0870   21.9060 H   0  0  0  0  0  0
    4.4080   35.9510   22.8790 H   0  0  0  0  0  0
    1.3580   33.6450   23.4110 H   0  0  0  0  0  0
   -1.0329   31.6363   27.8642 H   0  0  0  0  0  0
    5.4690   29.3300   22.1900 H   0  0  0  0  0  0
    4.5850   28.3820   24.2950 H   0  0  0  0  0  0
    2.8490   37.0770   26.7250 H   0  0  0  0  0  0
    0.5800   37.2600   25.7340 H   0  0  0  0  0  0
  1 17  2  0  0  0
  1  2  1  0  0  0
  1 18  1  0  0  0
  2  3  2  0  0  0
  2  4  1  0  0  0
  3  6  1  0  0  0
  3 30  1  0  0  0
  4 31  1  0  0  0
  5  6  2  0  0  0
  5  7  1  0  0  0
  5 17  1  0  0  0
  6 21  1  0  0  0
  7 22  2  0  0  0
  7  8  1  0  0  0
  8 32  1  0  0  0
  8 33  1  0  0  0
  8  9  1  0  0  0
  9 12  1  0  0  0
  9 10  2  0  0  0
 10 34  1  0  0  0
 10 11  1  0  0  0
 11 23  2  0  0  0
 11 35  1  0  0  0
 12 36  1  0  0  0
 12 24  2  0  0  0
 13 19  1  0  0  0
 13 37  1  0  0  0
 13 38  1  0  0  0
 13 39  1  0  0  0
 14 25  1  0  0  0
 14 40  1  0  0  0
 14 41  1  0  0  0
 14 19  1  0  0  0
 15 16  2  0  0  0
 15 25  1  0  0  0
 15 42  1  0  0  0
 16 26  1  0  0  0
 16 43  1  0  0  0
 17 44  1  0  0  0
 18 19  1  0  0  0
 18 20  2  0  0  0
 21 22  1  0  0  0
 21 45  1  0  0  0
 23 24  1  0  0  0
 23 46  1  0  0  0
 24 47  1  0  0  0
 25 28  2  0  0  0
 26 29  1  0  0  0
 26 27  2  0  0  0
 27 48  1  0  0  0
 27 28  1  0  0  0
 28 49  1  0  0  0
M  END
> <s_m_source_file>
../wget-ligand-expo/C4T_model.sdf

> <i_m_source_file_index>
1

> <i_lp_mmshare_version>
54117

> <s_epik_input>
W2NIXTFbY0hdYyhDbClbY0hdW2NIXWMxW0NIMl1OKFtDSDNdKUMoPU8pYyhbY0hdMiljKFtPSF0pW2NIXWMoYzIzKVtuSF1uYzNbQ0gyXWM0W2NIXVtjSF1bY0hdW2NIXVtjSF00

> <s_epik_cmdline>
J2VwaWtfcHl0aG9uJywgJy1waHQnLCAnMC4wJywgJy1waCcsICc3LjQnLCAnLW50JywgJy1tYScsICcyMDAnLCAnLWltYWUnLCAnPGluZmlsZS5tYWU+JywgJy1vbWFlJywgJzxvdXRmaWxlLm1hZT4n

> <r_epik_Ionization_Penalty>
0.224377

> <r_epik_Ionization_Penalty_Charging>
0

> <r_epik_Ionization_Penalty_Neutral>
0.224377

> <r_epik_State_Penalty>
0.214829

> <r_epik_Charging_Adjusted_Penalty>
0.214829

> <i_epik_Tot_Q>
0

> <i_epik_Tot_abs_Q>
0

> <s_lp_Variant>
C4T-1

$$$$
