C4N
                    3D
 Schrodinger Suite 2021-2.
 52 55  0  0  1  0            999 V2000
   66.4830   34.2320   23.8740 C   0  0  0  0  0  0
   65.3300   33.8090   24.5770 C   0  0  0  0  0  0
   65.4320   33.0840   25.7540 C   0  0  0  0  0  0
   64.1100   34.0650   24.0580 O   0  0  0  0  0  0
   67.8600   33.2500   25.6050 C   0  0  0  0  0  0
   66.6910   32.8220   26.2960 C   0  0  0  0  0  0
   68.9900   32.8490   26.4370 C   0  0  0  0  0  0
   70.4430   33.2060   26.1920 C   0  0  0  0  0  0
   71.1410   32.5500   25.0300 C   0  0  0  0  0  0
   71.6560   33.3510   24.0050 C   0  0  0  0  0  0
   72.4000   32.7890   22.9590 C   0  0  0  0  0  0
   71.4190   31.1800   25.0420 C   0  0  0  0  0  0
   66.6080   36.8780   21.0850 C   0  0  0  0  0  0
   67.0000   37.1620   23.5260 C   0  0  0  0  0  0
   68.5760   37.2440   25.4240 C   0  0  0  0  0  0
   69.8530   37.2520   25.9670 C   0  0  0  0  0  0
   72.4870   29.1710   23.9860 C   0  0  0  0  0  0
   67.7580   33.8860   24.3590 C   0  0  0  0  0  0
   66.3690   34.9330   22.5670 C   0  0  0  0  0  0
   66.7020   36.2510   22.4070 N   0  0  0  0  0  0
   66.0400   34.2540   21.6020 O   0  0  0  0  0  0
   67.1080   32.2380   27.4640 N   0  0  0  0  0  0
   68.5010   32.3450   27.5360 N   0  0  0  0  0  0
   72.6570   31.4240   22.9560 C   0  0  0  0  0  0
   72.1680   30.6310   23.9960 C   0  0  0  0  0  0
   68.4120   37.1710   24.0380 C   0  0  0  0  0  0
   70.9590   37.1920   25.1170 C   0  0  0  0  0  0
   70.7860   37.1170   23.7310 C   0  0  0  0  0  0
   69.5100   37.1060   23.1790 C   0  0  0  0  0  0
   72.5580   37.2200   25.8040 Cl  0  0  0  0  0  0
   64.5420   32.7240   26.2490 H   0  0  0  0  0  0
   64.0190   34.6395   23.1244 H   0  0  0  0  0  0
   70.5287   34.2868   26.0062 H   0  0  0  0  0  0
   71.0406   32.9373   27.0756 H   0  0  0  0  0  0
   71.4780   34.4160   24.0200 H   0  0  0  0  0  0
   72.7710   33.4130   22.1600 H   0  0  0  0  0  0
   71.0610   30.5550   25.8470 H   0  0  0  0  0  0
   66.3837   36.1100   20.3301 H   0  0  0  0  0  0
   67.5642   37.3640   20.8409 H   0  0  0  0  0  0
   65.8056   37.6304   21.0923 H   0  0  0  0  0  0
   66.3177   36.8681   24.3372 H   0  0  0  0  0  0
   66.7331   38.1675   23.1687 H   0  0  0  0  0  0
   67.7120   37.2940   26.0700 H   0  0  0  0  0  0
   69.9900   37.3040   27.0370 H   0  0  0  0  0  0
   73.0789   28.9312   23.0904 H   0  0  0  0  0  0
   71.5521   28.5915   23.9736 H   0  0  0  0  0  0
   73.0647   28.9158   24.8866 H   0  0  0  0  0  0
   68.6430   34.1070   23.7810 H   0  0  0  0  0  0
   66.3720   31.7926   28.1496 H   0  0  0  0  0  0
   73.2300   30.9800   22.1560 H   0  0  0  0  0  0
   71.6500   37.0670   23.0850 H   0  0  0  0  0  0
   69.3720   37.0480   22.1090 H   0  0  0  0  0  0
  1 18  2  0  0  0
  1  2  1  0  0  0
  1 19  1  0  0  0
  2  3  2  0  0  0
  2  4  1  0  0  0
  3  6  1  0  0  0
  3 31  1  0  0  0
  4 32  1  0  0  0
  5  6  2  0  0  0
  5  7  1  0  0  0
  5 18  1  0  0  0
  6 22  1  0  0  0
  7 23  2  0  0  0
  7  8  1  0  0  0
  8 33  1  0  0  0
  8 34  1  0  0  0
  8  9  1  0  0  0
  9 12  1  0  0  0
  9 10  2  0  0  0
 10 35  1  0  0  0
 10 11  1  0  0  0
 11 36  1  0  0  0
 11 24  2  0  0  0
 12 37  1  0  0  0
 12 25  2  0  0  0
 13 20  1  0  0  0
 13 38  1  0  0  0
 13 39  1  0  0  0
 13 40  1  0  0  0
 14 26  1  0  0  0
 14 41  1  0  0  0
 14 42  1  0  0  0
 14 20  1  0  0  0
 15 16  1  0  0  0
 15 43  1  0  0  0
 15 26  2  0  0  0
 16 44  1  0  0  0
 16 27  2  0  0  0
 17 25  1  0  0  0
 17 45  1  0  0  0
 17 46  1  0  0  0
 17 47  1  0  0  0
 18 48  1  0  0  0
 19 20  1  0  0  0
 19 21  2  0  0  0
 22 23  1  0  0  0
 22 49  1  0  0  0
 24 25  1  0  0  0
 24 50  1  0  0  0
 26 29  1  0  0  0
 27 30  1  0  0  0
 27 28  1  0  0  0
 28 51  1  0  0  0
 28 29  2  0  0  0
 29 52  1  0  0  0
M  END
> <s_m_source_file>
../wget-ligand-expo/C4N_model.sdf

> <i_m_source_file_index>
1

> <i_lp_mmshare_version>
54117

> <s_epik_input>
W2NIXTFbY0hdYyhDbClbY0hdW2NIXWMxW0NIMl1OKFtDSDNdKUMoPU8pYyhbY0hdMiljKFtPSF0pW2NIXWMoYzIzKVtuSF1uYzNbQ0gyXWM0W2NIXVtjSF1bY0hdYyhbY0hdNClbQ0gzXQ==

> <s_epik_cmdline>
J2VwaWtfcHl0aG9uJywgJy1waHQnLCAnMC4wJywgJy1waCcsICc3LjQnLCAnLW50JywgJy1tYScsICcyMDAnLCAnLWltYWUnLCAnPGluZmlsZS5tYWU+JywgJy1vbWFlJywgJzxvdXRmaWxlLm1hZT4n

> <r_epik_Ionization_Penalty>
0.224377

> <r_epik_Ionization_Penalty_Charging>
0

> <r_epik_Ionization_Penalty_Neutral>
0.224377

> <r_epik_State_Penalty>
0.214829

> <r_epik_Charging_Adjusted_Penalty>
0.214829

> <i_epik_Tot_Q>
0

> <i_epik_Tot_abs_Q>
0

> <s_lp_Variant>
C4N-1

$$$$
