C8W
                    3D
 Schrodinger Suite 2021-2.
 49 51  0  0  1  0            999 V2000
   67.9910   38.5030   27.0670 C   0  0  0  0  0  0
   64.9600   37.5300   19.3790 N   0  0  0  0  0  0
   63.3120   33.8250   25.0400 C   0  0  0  0  0  0
   64.6390   33.9000   25.5520 C   0  0  0  0  0  0
   65.0040   33.2640   26.8000 C   0  0  0  0  0  0
   63.8820   35.0790   23.1600 C   0  0  0  0  0  0
   65.2100   35.2700   23.5900 C   0  0  0  0  0  0
   65.9680   36.0870   22.6340 C   0  0  0  0  0  0
   69.1850   33.9460   25.8870 C   0  0  0  0  0  0
   67.9180   33.7440   25.3510 C   0  0  0  0  0  0
   66.9820   34.7920   25.3630 C   0  0  0  0  0  0
   67.3370   36.0160   25.9460 C   0  0  0  0  0  0
   68.3900   39.5670   28.0990 C   0  0  0  0  0  0
   68.9470   37.4240   27.0300 O   0  0  0  0  0  0
   63.6060   35.8960   21.6340 S   0  0  0  0  0  0
   65.2540   36.4880   21.5350 C   0  0  0  0  0  0
   65.7530   37.2610   20.4340 C   0  0  0  0  0  0
   62.3120   33.1600   25.7100 N   0  0  0  0  0  0
   62.9990   34.3720   23.8860 N   0  0  0  0  0  0
   65.3310   32.7680   27.7730 N   0  0  0  0  0  0
   67.3100   36.4370   22.7970 N   0  0  0  0  0  0
   68.6130   36.2220   26.4710 C   0  0  0  0  0  0
   69.5570   35.1800   26.4350 C   0  0  0  0  0  0
   65.6040   34.6410   24.8260 C   0  0  0  0  0  0
   70.8120   35.3990   26.9590 O   0  0  0  0  0  0
   71.8470   34.4060   26.9160 C   0  0  0  0  0  0
   66.9140   37.6480   20.3940 O   0  0  0  0  0  0
   69.5570   40.4340   27.6000 C   0  0  0  0  0  0
   69.1450   41.3760   26.4870 C   0  0  0  0  0  0
   68.5610   42.4080   26.7460 O   0  5  0  0  0  0
   69.4330   41.0750   25.2050 O   0  0  0  0  0  0
   67.0062   38.0889   27.3293 H   0  0  0  0  0  0
   67.9419   38.9612   26.0682 H   0  0  0  0  0  0
   63.9114   37.1977   19.3802 H   0  0  0  0  0  0
   65.3610   38.0820   18.5162 H   0  0  0  0  0  0
   69.8970   33.1340   25.8810 H   0  0  0  0  0  0
   67.6550   32.7860   24.9270 H   0  0  0  0  0  0
   66.6100   36.8140   25.9900 H   0  0  0  0  0  0
   67.5310   40.2245   28.2985 H   0  0  0  0  0  0
   68.6994   39.0744   29.0326 H   0  0  0  0  0  0
   62.5214   32.6846   26.6796 H   0  0  0  0  0  0
   61.3027   33.1034   25.2763 H   0  0  0  0  0  0
   67.8613   36.1026   23.6882 H   0  0  0  0  0  0
   67.8159   37.0471   22.0342 H   0  0  0  0  0  0
   72.7558   34.8028   27.3919 H   0  0  0  0  0  0
   72.0642   34.1479   25.8690 H   0  0  0  0  0  0
   71.5143   33.5061   27.4541 H   0  0  0  0  0  0
   69.9445   41.0410   28.4315 H   0  0  0  0  0  0
   70.3577   39.7851   27.2156 H   0  0  0  0  0  0
  1 13  1  0  0  0
  1 32  1  0  0  0
  1 33  1  0  0  0
  1 14  1  0  0  0
  2 17  1  0  0  0
  2 34  1  0  0  0
  2 35  1  0  0  0
  3  4  1  0  0  0
  3 18  1  0  0  0
  3 19  2  0  0  0
  4  5  1  0  0  0
  4 24  2  0  0  0
  5 20  3  0  0  0
  6  7  2  0  0  0
  6 19  1  0  0  0
  6 15  1  0  0  0
  7 24  1  0  0  0
  7  8  1  0  0  0
  8 21  1  0  0  0
  8 16  2  0  0  0
  9 23  2  0  0  0
  9 36  1  0  0  0
  9 10  1  0  0  0
 10 11  2  0  0  0
 10 37  1  0  0  0
 11 12  1  0  0  0
 11 24  1  0  0  0
 12 22  2  0  0  0
 12 38  1  0  0  0
 13 39  1  0  0  0
 13 40  1  0  0  0
 13 28  1  0  0  0
 14 22  1  0  0  0
 15 16  1  0  0  0
 16 17  1  0  0  0
 17 27  2  0  0  0
 18 41  1  0  0  0
 18 42  1  0  0  0
 21 43  1  0  0  0
 21 44  1  0  0  0
 22 23  1  0  0  0
 23 25  1  0  0  0
 25 26  1  0  0  0
 26 45  1  0  0  0
 26 46  1  0  0  0
 26 47  1  0  0  0
 28 48  1  0  0  0
 28 49  1  0  0  0
 28 29  1  0  0  0
 29 30  1  0  0  0
 29 31  2  0  0  0
M  CHG  1  30  -1
M  END
> <s_m_source_file>
../wget-ligand-expo/C8W_model.sdf

> <i_m_source_file_index>
1

> <i_lp_mmshare_version>
54117

> <s_epik_input>
W09IXUMoPU8pW0NIMl1bQ0gyXVtDSDJdT2MoW2NIXTEpYyhPW0NIM10pW2NIXVtjSF1jMS1jKGMoQyNOKWMobjIpW05IMl0pYyhjMjMpYyhbTkgyXSljKHMzKUMoPU8pW05IMl0=

> <s_epik_cmdline>
J2VwaWtfcHl0aG9uJywgJy1waHQnLCAnMC4wJywgJy1waCcsICc3LjQnLCAnLW50JywgJy1tYScsICcyMDAnLCAnLWltYWUnLCAnPGluZmlsZS5tYWU+JywgJy1vbWFlJywgJzxvdXRmaWxlLm1hZT4n

> <r_lp_tautomer_probability>
1

> <r_epik_Ionization_Penalty>
0.00264461

> <r_epik_Ionization_Penalty_Charging>
0.00102656

> <r_epik_Ionization_Penalty_Neutral>
0.00161804

> <r_epik_State_Penalty>
-0

> <r_epik_Charging_Adjusted_Penalty>
0.00102656

> <i_epik_Tot_Q>
-1

> <i_epik_Tot_abs_Q>
1

> <s_lp_Variant>
C8W-1

$$$$
