pdb2uwd-lig
                    3D
 Structure written by MMmdl.
 63 65  0  0  1  0            999 V2000
    1.4215   -6.5846    4.0468 C   0  0  0  0  0  0
    1.9061   -5.6849    3.0620 O   0  0  0  0  0  0
    0.9596   -4.7154    2.6310 C   0  0  1  0  0  0
    0.7848   -3.5968    3.6776 C   0  0  0  0  0  0
   -0.0939   -2.4575    3.1358 C   0  0  0  0  0  0
    1.4732   -4.1343    1.3035 C   0  0  0  0  0  0
    0.5784   -2.9879    0.8067 C   0  0  0  0  0  0
    0.5020   -1.8432    1.8473 C   0  0  1  0  0  0
   -0.3232   -0.6353    1.3265 C   0  0  2  0  0  0
    0.1294    0.0666    0.0370 C   0  0  2  0  0  0
    1.6465    0.1402   -0.2993 C   0  0  1  0  0  0
    1.8610    0.8192   -1.5206 O   0  0  0  0  0  0
    2.4695    0.9394    0.6340 N   0  3  0  0  0  0
    3.9216    0.6522    0.6232 C   0  0  0  0  0  0
    4.2667   -0.6274    1.3977 C   0  0  0  0  0  0
   -0.4781    1.3878    0.1425 N   0  0  0  0  0  0
   -0.7746    0.5116    2.2602 C   0  0  1  0  0  0
    0.2310    1.4231    3.0558 C   0  0  2  0  0  0
    1.0445    0.6457    4.1224 C   0  0  0  0  0  0
    2.0055    1.5220    4.9431 C   0  0  1  0  0  0
    3.3210    2.1314    3.8955 Cl  0  0  0  0  0  0
    1.2430    2.6727    5.6200 C   0  0  1  0  0  0
    2.1303    3.5095    6.3337 O   0  0  0  0  0  0
    0.4564    3.4924    4.5895 C   0  0  0  0  0  0
   -0.4982    2.6065    3.7639 C   0  0  1  0  0  0
   -1.1112    3.4762    2.8331 O   0  0  0  0  0  0
   -1.4087    1.2909    1.2547 O   0  0  0  0  0  0
    2.1904   -7.3247    4.2679 H   0  0  0  0  0  0
    0.5368   -7.1177    3.6967 H   0  0  0  0  0  0
    1.1788   -6.0747    4.9787 H   0  0  0  0  0  0
   -0.0025   -5.1962    2.4435 H   0  0  0  0  0  0
    0.3337   -3.9917    4.5876 H   0  0  0  0  0  0
    1.7607   -3.2006    3.9617 H   0  0  0  0  0  0
   -1.0958   -2.8388    2.9326 H   0  0  0  0  0  0
   -0.2228   -1.7142    3.9152 H   0  0  0  0  0  0
    2.4937   -3.7696    1.4296 H   0  0  0  0  0  0
    1.5179   -4.9213    0.5500 H   0  0  0  0  0  0
    0.9507   -2.6443   -0.1547 H   0  0  0  0  0  0
   -0.4226   -3.3733    0.6070 H   0  0  0  0  0  0
    1.5191   -1.5124    2.0444 H   0  0  0  0  0  0
   -1.2726   -1.1005    1.0495 H   0  0  0  0  0  0
   -0.3584   -0.4436   -0.7948 H   0  0  0  0  0  0
    2.0724   -0.8544   -0.3969 H   0  0  0  0  0  0
    1.8305    0.1905   -2.2262 H   0  0  0  0  0  0
    2.3307    1.9140    0.4077 H   0  0  0  0  0  0
    4.2959    0.5994   -0.3997 H   0  0  0  0  0  0
    4.4283    1.4946    1.0942 H   0  0  0  0  0  0
    5.3460   -0.7790    1.4271 H   0  0  0  0  0  0
    3.8262   -1.5128    0.9399 H   0  0  0  0  0  0
    3.9143   -0.5725    2.4281 H   0  0  0  0  0  0
    0.2076    2.0643    0.4455 H   0  0  0  0  0  0
   -1.5371    0.1482    2.9505 H   0  0  0  0  0  0
    0.9338    1.8753    2.3639 H   0  0  0  0  0  0
    0.3527    0.1732    4.8193 H   0  0  0  0  0  0
    1.6302   -0.1476    3.6698 H   0  0  0  0  0  0
    2.4854    0.9077    5.7060 H   0  0  0  0  0  0
    0.5406    2.2542    6.3419 H   0  0  0  0  0  0
    2.5582    2.9968    7.0025 H   0  0  0  0  0  0
   -0.1128    4.2701    5.1011 H   0  0  0  0  0  0
    1.1481    4.0109    3.9232 H   0  0  0  0  0  0
   -1.2762    2.2119    4.4188 H   0  0  0  0  0  0
   -1.7367    2.9816    2.3244 H   0  0  0  0  0  0
    2.1355    0.7804    1.5738 H   0  0  0  0  0  0
  1  2  1  0  0  0
  1 28  1  0  0  0
  1 29  1  0  0  0
  1 30  1  0  0  0
  2  3  1  0  0  0
  3  4  1  0  0  0
  3  6  1  0  0  0
  3 31  1  0  0  0
  4  5  1  0  0  0
  4 32  1  0  0  0
  4 33  1  0  0  0
  5  8  1  0  0  0
  5 34  1  0  0  0
  5 35  1  0  0  0
  6  7  1  0  0  0
  6 36  1  0  0  0
  6 37  1  0  0  0
  7  8  1  0  0  0
  7 38  1  0  0  0
  7 39  1  0  0  0
  8  9  1  0  0  0
  8 40  1  0  0  0
  9 10  1  0  0  0
  9 17  1  0  0  0
  9 41  1  0  0  0
 10 11  1  0  0  0
 10 16  1  0  0  0
 10 42  1  0  0  0
 11 12  1  0  0  0
 11 13  1  0  0  0
 11 43  1  0  0  0
 12 44  1  0  0  0
 13 14  1  0  0  0
 13 45  1  0  0  0
 13 63  1  0  0  0
 14 15  1  0  0  0
 14 46  1  0  0  0
 14 47  1  0  0  0
 15 48  1  0  0  0
 15 49  1  0  0  0
 15 50  1  0  0  0
 16 27  1  0  0  0
 16 51  1  0  0  0
 17 18  1  0  0  0
 17 27  1  0  0  0
 17 52  1  0  0  0
 18 19  1  0  0  0
 18 25  1  0  0  0
 18 53  1  0  0  0
 19 20  1  0  0  0
 19 54  1  0  0  0
 19 55  1  0  0  0
 20 21  1  0  0  0
 20 22  1  0  0  0
 20 56  1  0  0  0
 22 23  1  0  0  0
 22 24  1  0  0  0
 22 57  1  0  0  0
 23 58  1  0  0  0
 24 25  1  0  0  0
 24 59  1  0  0  0
 24 60  1  0  0  0
 25 26  1  0  0  0
 25 61  1  0  0  0
 26 62  1  0  0  0
M  CHG  1  13   1
M  END
> <entry id>
64

> <entry name>
pdb2uwd-lig.1

> <PDB format version>
3.0

> <Source Path>
C:\Users\zzy\Desktop\hsp90-33sys\crystal-ligand

> <Source File>
pdb2uwd-lig.pdb

> <Source File Index>
1

> <source file>
ligprep_hsp90-33system.maegz

> <source file index>
31

> <mmshare version>
37011

> <Ionization Penalty>
0.4797

> <Ionization Penalty Charging>
0.0957

> <Ionization Penalty Neutral>
0.384

> <State Penalty>
0.4287

> <Charging Adjusted Penalty>
0.524434

> <Tot Q>
1

> <Tot abs Q>
1

> <Chemistry Notes>
This compound contains an acetal/aminal-like group ( X-CH(R)-Y where X, Y are N, S, or O) that may be acid/base labile, releasing an aldehyde. This compound has a N-S or N-O group and may undergo hydrolysis at high or low pH.

> <i_f3d_flags>
0

> <Force Field>
OPLS_2005

> <Energy>
60.1911

> <Chiralities Consistent>
1

> <Variant>
pdb2uwd-lig-1

> <job name>
ligprep_hsp90-33system

> <subgroupid>
ligprep_hsp90-33system-out1

> <subgroup title>
ligprep_hsp90-33system-out1

> <subgroup collapsed>
0

$$$$
