pdb5oci-lig
                    3D
 Structure written by MMmdl.
 84 88  0  0  1  0            999 V2000
   -0.1105    0.0142    0.1977 C   0  0  1  0  0  0
   -0.8328   -0.5467   -1.0691 C   0  0  1  0  0  0
   -2.3633   -0.5119   -0.9141 C   0  0  0  0  0  0
   -0.5347    0.1853   -2.2399 O   0  0  0  0  0  0
   -2.0792   -0.8899    1.6195 C   0  0  1  0  0  0
   -2.8676   -1.2159    0.3548 C   0  0  2  0  0  0
   -2.4901   -2.0568    2.5301 C   0  0  1  0  0  0
   -3.6637   -1.6738    3.4576 C   0  0  0  0  0  0
   -4.0561   -2.7517    4.4915 C   0  0  1  0  0  0
   -2.9579   -2.9893    5.5508 C   0  0  0  0  0  0
   -4.7115   -3.6641    7.2566 C   0  0  0  0  0  0
   -5.3825   -2.3769    5.1856 C   0  0  0  0  0  0
   -7.1478   -3.0483    6.8874 C   0  0  0  0  0  0
    5.2320    3.4219    0.9945 C   0  0  0  0  0  0
    3.7311    3.1431    0.8176 C   0  0  0  0  0  0
    4.1491    0.6929    1.1767 C   0  0  0  0  0  0
    7.2892    2.7121    2.2567 N   0  0  0  0  0  0
    7.8105    1.9397    3.3812 C   0  0  0  0  0  0
    9.2257    2.3956    3.7761 C   0  0  0  0  0  0
    9.6367    3.0874    1.5446 C   0  0  0  0  0  0
    8.2232    2.6399    1.1337 C   0  0  0  0  0  0
   -0.5529   -0.8633    1.3936 C   0  0  0  0  0  0
    1.4638    0.1113    0.1497 C   0  0  1  0  0  0
    1.9677   -0.5603   -0.8597 O   0  5  0  0  0  0
   -2.9387   -2.6703    0.2962 N   0  0  0  0  0  0
   -2.8279   -3.1670    1.6262 N   0  0  0  0  0  0
   -5.8225   -3.4353    6.2158 C   0  0  2  0  0  0
   -3.3848   -4.0440    6.5836 C   0  0  0  0  0  0
    3.4582    1.7284    0.2453 C   0  0  1  0  0  0
    5.8936    2.3871    1.9241 C   0  0  2  0  0  0
    5.6503    0.9724    1.3537 C   0  0  0  0  0  0
    1.9803    1.5216    0.0337 N   0  3  1  0  0  0
    1.4869    2.2586   -1.1650 C   0  0  0  0  0  0
   10.0876    2.3050    2.6459 O   0  0  0  0  0  0
   -0.5055    1.0095    0.4046 H   0  0  0  0  0  0
   -0.5215   -1.5783   -1.2406 H   0  0  0  0  0  0
   -2.6858    0.5297   -0.8733 H   0  0  0  0  0  0
   -2.8466   -0.9414   -1.7927 H   0  0  0  0  0  0
    0.3910    0.0881   -2.4112 H   0  0  0  0  0  0
   -2.3899    0.0764    2.0192 H   0  0  0  0  0  0
   -3.8932   -0.8811    0.5173 H   0  0  0  0  0  0
   -1.6410   -2.3552    3.1441 H   0  0  0  0  0  0
   -3.4170   -0.7546    3.9908 H   0  0  0  0  0  0
   -4.5318   -1.4342    2.8418 H   0  0  0  0  0  0
   -4.2216   -3.6889    3.9582 H   0  0  0  0  0  0
   -2.0330   -3.3189    5.0786 H   0  0  0  0  0  0
   -2.7275   -2.0529    6.0608 H   0  0  0  0  0  0
   -4.5709   -2.7613    7.8524 H   0  0  0  0  0  0
   -5.0065   -4.4508    7.9518 H   0  0  0  0  0  0
   -5.2765   -1.4094    5.6788 H   0  0  0  0  0  0
   -6.1659   -2.2545    4.4364 H   0  0  0  0  0  0
   -7.0528   -2.1144    7.4423 H   0  0  0  0  0  0
   -7.4736   -3.8193    7.5859 H   0  0  0  0  0  0
   -7.9393   -2.9177    6.1488 H   0  0  0  0  0  0
    5.7074    3.4201    0.0134 H   0  0  0  0  0  0
    5.3669    4.4241    1.4030 H   0  0  0  0  0  0
    3.2269    3.2508    1.7788 H   0  0  0  0  0  0
    3.3254    3.9236    0.1774 H   0  0  0  0  0  0
    3.6712    0.6942    2.1574 H   0  0  0  0  0  0
    4.0519   -0.3174    0.7802 H   0  0  0  0  0  0
    7.1467    2.0387    4.2406 H   0  0  0  0  0  0
    7.8437    0.8800    3.1288 H   0  0  0  0  0  0
    9.2120    3.4203    4.1512 H   0  0  0  0  0  0
    9.6180    1.7662    4.5750 H   0  0  0  0  0  0
   10.3302    2.9646    0.7127 H   0  0  0  0  0  0
    9.6435    4.1448    1.8140 H   0  0  0  0  0  0
    8.2735    1.6193    0.7530 H   0  0  0  0  0  0
    7.8839    3.2676    0.3109 H   0  0  0  0  0  0
   -0.1839   -1.8781    1.2343 H   0  0  0  0  0  0
   -0.0894   -0.5154    2.3176 H   0  0  0  0  0  0
    1.7563   -0.1556    1.1621 H   0  0  0  0  0  0
   -3.8189   -2.9754   -0.1144 H   0  0  0  0  0  0
   -2.0900   -3.8682    1.6436 H   0  0  0  0  0  0
   -5.9862   -4.3739    5.6845 H   0  0  0  0  0  0
   -3.4878   -5.0131    6.0942 H   0  0  0  0  0  0
   -2.6064   -4.1606    7.3380 H   0  0  0  0  0  0
    3.9379    1.6460   -0.7318 H   0  0  0  0  0  0
    5.3370    2.4400    2.8611 H   0  0  0  0  0  0
    6.0681    0.2112    2.0117 H   0  0  0  0  0  0
    6.1498    0.8577    0.3911 H   0  0  0  0  0  0
    1.8084    1.7784   -2.0898 H   0  0  0  0  0  0
    1.8435    3.2849   -1.2001 H   0  0  0  0  0  0
    0.4013    2.3303   -1.1710 H   0  0  0  0  0  0
    1.5546    1.9890    0.8207 H   0  0  0  0  0  0
  1  2  1  0  0  0
  1 22  1  0  0  0
  1 23  1  0  0  0
  1 35  1  0  0  0
  2  3  1  0  0  0
  2  4  1  0  0  0
  2 36  1  0  0  0
  3  6  1  0  0  0
  3 37  1  0  0  0
  3 38  1  0  0  0
  4 39  1  0  0  0
  5  6  1  0  0  0
  5  7  1  0  0  0
  5 22  1  0  0  0
  5 40  1  0  0  0
  6 25  1  0  0  0
  6 41  1  0  0  0
  7  8  1  0  0  0
  7 26  1  0  0  0
  7 42  1  0  0  0
  8  9  1  0  0  0
  8 43  1  0  0  0
  8 44  1  0  0  0
  9 10  1  0  0  0
  9 12  1  0  0  0
  9 45  1  0  0  0
 10 28  1  0  0  0
 10 46  1  0  0  0
 10 47  1  0  0  0
 11 27  1  0  0  0
 11 28  1  0  0  0
 11 48  1  0  0  0
 11 49  1  0  0  0
 12 27  1  0  0  0
 12 50  1  0  0  0
 12 51  1  0  0  0
 13 27  1  0  0  0
 13 52  1  0  0  0
 13 53  1  0  0  0
 13 54  1  0  0  0
 14 15  1  0  0  0
 14 30  1  0  0  0
 14 55  1  0  0  0
 14 56  1  0  0  0
 15 29  1  0  0  0
 15 57  1  0  0  0
 15 58  1  0  0  0
 16 29  1  0  0  0
 16 31  1  0  0  0
 16 59  1  0  0  0
 16 60  1  0  0  0
 17 18  1  0  0  0
 17 21  1  0  0  0
 17 30  1  0  0  0
 18 19  1  0  0  0
 18 61  1  0  0  0
 18 62  1  0  0  0
 19 34  1  0  0  0
 19 63  1  0  0  0
 19 64  1  0  0  0
 20 21  1  0  0  0
 20 34  1  0  0  0
 20 65  1  0  0  0
 20 66  1  0  0  0
 21 67  1  0  0  0
 21 68  1  0  0  0
 22 69  1  0  0  0
 22 70  1  0  0  0
 23 24  1  0  0  0
 23 32  1  0  0  0
 23 71  1  0  0  0
 25 26  1  0  0  0
 25 72  1  0  0  0
 26 73  1  0  0  0
 27 74  1  0  0  0
 28 75  1  0  0  0
 28 76  1  0  0  0
 29 32  1  0  0  0
 29 77  1  0  0  0
 30 31  1  0  0  0
 30 78  1  0  0  0
 31 79  1  0  0  0
 31 80  1  0  0  0
 32 33  1  0  0  0
 32 84  1  0  0  0
 33 81  1  0  0  0
 33 82  1  0  0  0
 33 83  1  0  0  0
M  CHG  2  24  -1  32   1
M  END
> <entry id>
50

> <entry name>
pdb5oci-lig.1

> <PDB format version>
3.0

> <Source Path>
C:\Users\zzy\Desktop\hsp90-33sys\crystal-ligand

> <Source File>
pdb5oci-lig.pdb

> <Source File Index>
1

> <source file>
ligprep_hsp90-33system.maegz

> <source file index>
17

> <mmshare version>
37011

> <Ionization Penalty>
0.7772

> <Ionization Penalty Charging>
0.1937

> <Ionization Penalty Neutral>
0.5835

> <State Penalty>
0

> <Charging Adjusted Penalty>
0.193703

> <Tot Q>
0

> <Tot abs Q>
2

> <Chemistry Notes>
This compound contains an acetal/aminal-like group ( X-CH(R)-Y where X, Y are N, S, or O) that may be acid/base labile, releasing an aldehyde.

> <i_f3d_flags>
0

> <Force Field>
OPLS_2005

> <Energy>
97.9353

> <Chiralities Consistent>
1

> <Variant>
pdb5oci-lig-1

> <job name>
ligprep_hsp90-33system

> <tautomer probability>
1

> <subgroupid>
ligprep_hsp90-33system-out1

> <subgroup title>
ligprep_hsp90-33system-out1

> <subgroup collapsed>
0

$$$$
