pdb5lo5-lig
                    3D
 Structure written by MMmdl.
 81 84  0  0  1  0            999 V2000
   -2.6751    2.9304   -0.2615 C   0  0  1  0  0  0
   -4.0901    2.5146   -0.6309 C   0  0  1  0  0  0
   -1.8830    1.7021   -0.7103 C   0  0  2  0  0  0
   -2.8237    0.5475   -0.2891 C   0  0  0  0  0  0
   -0.4629    1.6091   -0.1229 C   0  0  0  0  0  0
   -3.3491    5.3770   -0.3816 C   0  0  1  0  0  0
   -4.8198    4.9023   -0.6120 C   0  0  1  0  0  0
    0.3323    0.4156   -0.6798 C   0  0  0  0  0  0
   -3.0325    5.7848    1.0798 C   0  0  0  0  0  0
    1.7916    0.3629   -0.2010 C   0  0  0  0  0  0
    1.9329    0.0342    1.2971 C   0  0  0  0  0  0
    4.2494    0.8468    1.6026 C   0  0  0  0  0  0
    3.1568    0.0394    4.1216 C   0  0  0  0  0  0
    4.0050    1.8575    2.7430 C   0  0  0  0  0  0
    4.7519    1.4935    6.4643 C   0  0  0  0  0  0
    2.7451    3.6539    6.7408 C   0  0  0  0  0  0
   -2.3530    4.2977   -0.8871 C   0  0  0  0  0  0
   -4.1875    1.1177   -0.1830 N   0  3  0  0  0  0
   -5.1144    3.4926   -0.0457 C   0  0  0  0  0  0
   -5.7601    5.8281   -0.1070 O   0  0  0  0  0  0
   -3.5715    7.1136    1.4229 N   0  3  0  0  0  0
    3.3172   -0.2852    1.6534 N   0  0  0  0  0  0
    3.4277   -0.9393    2.9601 C   0  0  0  0  0  0
    4.1067    1.1800    4.0591 N   0  3  0  0  0  0
    4.0848    2.1156    5.2214 C   0  0  1  0  0  0
    2.6784    2.6502    5.5767 C   0  0  0  0  0  0
    4.8098    2.4986    7.6268 C   0  0  0  0  0  0
    3.4113    3.0379    7.9911 C   0  0  1  0  0  0
    3.4979    4.0399    9.1593 C   0  0  0  0  0  0
    2.1698    4.3792    9.7002 N   0  3  0  0  0  0
   -2.5927    3.0072    0.8244 H   0  0  0  0  0  0
   -4.1932    2.5021   -1.7182 H   0  0  0  0  0  0
   -1.8166    1.7195   -1.7998 H   0  0  0  0  0  0
   -2.7996   -0.2685   -1.0120 H   0  0  0  0  0  0
   -2.5464    0.1397    0.6837 H   0  0  0  0  0  0
    0.0767    2.5285   -0.3523 H   0  0  0  0  0  0
   -0.5168    1.5504    0.9646 H   0  0  0  0  0  0
   -3.1831    6.2609   -0.9998 H   0  0  0  0  0  0
   -4.9858    4.8660   -1.6898 H   0  0  0  0  0  0
   -0.1673   -0.5202   -0.4272 H   0  0  0  0  0  0
    0.3313    0.4721   -1.7690 H   0  0  0  0  0  0
   -3.4155    5.0510    1.7885 H   0  0  0  0  0  0
   -1.9541    5.8332    1.2327 H   0  0  0  0  0  0
    2.3120   -0.4010   -0.7806 H   0  0  0  0  0  0
    2.2786    1.3090   -0.4372 H   0  0  0  0  0  0
    1.5408    0.8458    1.9086 H   0  0  0  0  0  0
    1.3175   -0.8404    1.5120 H   0  0  0  0  0  0
    4.1976    1.3450    0.6353 H   0  0  0  0  0  0
    5.2647    0.4561    1.6807 H   0  0  0  0  0  0
    2.1258    0.3916    4.0852 H   0  0  0  0  0  0
    3.2723   -0.4946    5.0640 H   0  0  0  0  0  0
    4.7564    2.6453    2.6790 H   0  0  0  0  0  0
    3.0354    2.3436    2.6351 H   0  0  0  0  0  0
    4.2062    0.6087    6.7919 H   0  0  0  0  0  0
    5.7615    1.1613    6.2199 H   0  0  0  0  0  0
    3.2988    4.5392    6.4250 H   0  0  0  0  0  0
    1.7361    3.9920    6.9778 H   0  0  0  0  0  0
   -1.3256    4.5868   -0.6641 H   0  0  0  0  0  0
   -2.4162    4.2253   -1.9738 H   0  0  0  0  0  0
   -4.4701    1.0971    0.7865 H   0  0  0  0  0  0
   -6.1248    3.1812   -0.3140 H   0  0  0  0  0  0
   -5.0638    3.4939    1.0437 H   0  0  0  0  0  0
   -6.6260    5.5576   -0.3753 H   0  0  0  0  0  0
   -3.3545    7.3318    2.3848 H   0  0  0  0  0  0
   -4.5742    7.1095    1.2969 H   0  0  0  0  0  0
    4.4319   -1.3538    3.0588 H   0  0  0  0  0  0
    2.7424   -1.7864    3.0083 H   0  0  0  0  0  0
    4.7018    2.9716    4.9429 H   0  0  0  0  0  0
    2.0182    1.8314    5.8641 H   0  0  0  0  0  0
    2.2216    3.1309    4.7115 H   0  0  0  0  0  0
    5.2622    2.0187    8.4955 H   0  0  0  0  0  0
    5.4673    3.3270    7.3583 H   0  0  0  0  0  0
    2.8074    2.1897    8.3186 H   0  0  0  0  0  0
    4.0865    3.6165    9.9739 H   0  0  0  0  0  0
    4.0023    4.9548    8.8464 H   0  0  0  0  0  0
    2.2751    5.0260   10.4690 H   0  0  0  0  0  0
    1.7138    3.5402   10.0296 H   0  0  0  0  0  0
   -4.8487    0.6013   -0.7458 H   0  0  0  0  0  0
    1.6079    4.8066    8.9781 H   0  0  0  0  0  0
    5.0294    0.7687    4.0686 H   0  0  0  0  0  0
   -3.1627    7.8124    0.8192 H   0  0  0  0  0  0
  1  2  1  0  0  0
  1  3  1  0  0  0
  1 17  1  0  0  0
  1 31  1  0  0  0
  2 18  1  0  0  0
  2 19  1  0  0  0
  2 32  1  0  0  0
  3  4  1  0  0  0
  3  5  1  0  0  0
  3 33  1  0  0  0
  4 18  1  0  0  0
  4 34  1  0  0  0
  4 35  1  0  0  0
  5  8  1  0  0  0
  5 36  1  0  0  0
  5 37  1  0  0  0
  6  7  1  0  0  0
  6  9  1  0  0  0
  6 17  1  0  0  0
  6 38  1  0  0  0
  7 19  1  0  0  0
  7 20  1  0  0  0
  7 39  1  0  0  0
  8 10  1  0  0  0
  8 40  1  0  0  0
  8 41  1  0  0  0
  9 21  1  0  0  0
  9 42  1  0  0  0
  9 43  1  0  0  0
 10 11  1  0  0  0
 10 44  1  0  0  0
 10 45  1  0  0  0
 11 22  1  0  0  0
 11 46  1  0  0  0
 11 47  1  0  0  0
 12 14  1  0  0  0
 12 22  1  0  0  0
 12 48  1  0  0  0
 12 49  1  0  0  0
 13 23  1  0  0  0
 13 24  1  0  0  0
 13 50  1  0  0  0
 13 51  1  0  0  0
 14 24  1  0  0  0
 14 52  1  0  0  0
 14 53  1  0  0  0
 15 25  1  0  0  0
 15 27  1  0  0  0
 15 54  1  0  0  0
 15 55  1  0  0  0
 16 26  1  0  0  0
 16 28  1  0  0  0
 16 56  1  0  0  0
 16 57  1  0  0  0
 17 58  1  0  0  0
 17 59  1  0  0  0
 18 60  1  0  0  0
 18 78  1  0  0  0
 19 61  1  0  0  0
 19 62  1  0  0  0
 20 63  1  0  0  0
 21 64  1  0  0  0
 21 65  1  0  0  0
 21 81  1  0  0  0
 22 23  1  0  0  0
 23 66  1  0  0  0
 23 67  1  0  0  0
 24 25  1  0  0  0
 24 80  1  0  0  0
 25 26  1  0  0  0
 25 68  1  0  0  0
 26 69  1  0  0  0
 26 70  1  0  0  0
 27 28  1  0  0  0
 27 71  1  0  0  0
 27 72  1  0  0  0
 28 29  1  0  0  0
 28 73  1  0  0  0
 29 30  1  0  0  0
 29 74  1  0  0  0
 29 75  1  0  0  0
 30 76  1  0  0  0
 30 77  1  0  0  0
 30 79  1  0  0  0
M  CHG  4  18   1  21   1  24   1  30   1
M  END
> <entry id>
42

> <entry name>
pdb5lo5-lig.1

> <PDB format version>
3.0

> <Source Path>
C:\Users\zzy\Desktop\hsp90-33sys\crystal-ligand

> <Source File>
pdb5lo5-lig.pdb

> <Source File Index>
1

> <source file>
ligprep_hsp90-33system.maegz

> <source file index>
9

> <mmshare version>
37011

> <Ionization Penalty>
0.0053

> <Ionization Penalty Charging>
0.0045

> <Ionization Penalty Neutral>
0.0008

> <State Penalty>
0

> <Charging Adjusted Penalty>
0.00450078

> <Tot Q>
4

> <Tot abs Q>
4

> <i_f3d_flags>
0

> <Force Field>
OPLS_2005

> <Energy>
84.4168

> <Chiralities Consistent>
1

> <Variant>
pdb5lo5-lig-1

> <job name>
ligprep_hsp90-33system

> <tautomer probability>
1

> <subgroupid>
ligprep_hsp90-33system-out1

> <subgroup title>
ligprep_hsp90-33system-out1

> <subgroup collapsed>
0

$$$$
