pdb5t21-lig
                    3D
 Structure written by MMmdl.
 77 80  0  0  1  0            999 V2000
    3.5487    3.2652    2.0149 C   0  0  0  0  0  0
    2.0576    0.7908    1.2265 C   0  0  1  0  0  0
    3.4839    1.0317    0.7131 C   0  0  1  0  0  0
    3.2533    1.4448   -0.7469 C   0  0  2  0  0  0
    1.9872    0.6662   -1.1497 C   0  0  0  0  0  0
    1.4063    4.3583    2.7254 C   0  0  0  0  0  0
    2.1736    2.3572    3.9854 C   0  0  0  0  0  0
   -0.0613   -0.1184    0.1136 C   0  0  1  0  0  0
   -0.5515   -0.7747    1.4234 C   0  0  0  0  0  0
   -0.1706   -2.2587    1.5080 C   0  0  0  0  0  0
    4.3218    2.0055    1.5703 C   0  0  2  0  0  0
    1.3402    2.1205    1.5926 C   0  0  0  0  0  0
    2.1301    3.0043    2.5831 C   0  0  0  0  0  0
    1.4213    0.0763    0.0901 N   0  3  2  0  0  0
    4.8294    1.3159    2.6940 O   0  0  0  0  0  0
   -0.7799   -3.0607    0.3377 C   0  0  1  0  0  0
   -0.3155   -2.4679   -1.0270 C   0  0  1  0  0  0
   -0.5863   -0.9414   -1.0952 C   0  0  0  0  0  0
   -0.5342   -4.5895    0.4838 C   0  0  1  0  0  0
   -1.1793   -5.1193    1.6958 N   0  3  0  0  0  0
    1.1080   -2.7887   -1.3150 N   0  3  0  0  0  0
    1.4635   -3.2521   -2.6829 C   0  0  1  0  0  0
    0.9587   -4.6808   -2.9712 C   0  0  0  0  0  0
    1.4445   -5.1751   -4.3432 C   0  0  0  0  0  0
    1.0240   -4.2046   -5.4609 C   0  0  1  0  0  0
    1.5275   -2.7779   -5.1784 C   0  0  0  0  0  0
    1.0450   -2.2784   -3.8063 C   0  0  0  0  0  0
    1.5437   -4.6527   -6.6945 O   0  0  0  0  0  0
    4.4491    1.1813   -1.6739 C   0  0  0  0  0  0
   -1.1760   -5.2043   -0.4723 O   0  5  0  0  0  0
    4.1446    3.8335    2.7308 H   0  0  0  0  0  0
    3.4555    3.9145    1.1432 H   0  0  0  0  0  0
    2.0875    0.1332    2.0950 H   0  0  0  0  0  0
    3.9989    0.0686    0.6923 H   0  0  0  0  0  0
    3.0222    2.5101   -0.7832 H   0  0  0  0  0  0
    1.2751    1.3370   -1.6328 H   0  0  0  0  0  0
    2.2187   -0.1352   -1.8488 H   0  0  0  0  0  0
    0.3938    4.2314    3.1106 H   0  0  0  0  0  0
    1.3269    4.8759    1.7687 H   0  0  0  0  0  0
    1.9358    5.0207    3.4113 H   0  0  0  0  0  0
    1.1723    2.2667    4.4079 H   0  0  0  0  0  0
    2.7645    2.9577    4.6780 H   0  0  0  0  0  0
    2.6014    1.3565    3.9785 H   0  0  0  0  0  0
   -0.5119    0.8724    0.0434 H   0  0  0  0  0  0
   -0.1875   -0.2521    2.3063 H   0  0  0  0  0  0
   -1.6380   -0.6901    1.4731 H   0  0  0  0  0  0
    0.9144   -2.3684    1.5225 H   0  0  0  0  0  0
   -0.5271   -2.6495    2.4611 H   0  0  0  0  0  0
    5.1974    2.3182    1.0010 H   0  0  0  0  0  0
    1.1551    2.6949    0.6840 H   0  0  0  0  0  0
    0.3546    1.9208    2.0117 H   0  0  0  0  0  0
    5.3906    1.9024    3.1790 H   0  0  0  0  0  0
   -1.8602   -2.9046    0.3872 H   0  0  0  0  0  0
   -0.9281   -2.9294   -1.8010 H   0  0  0  0  0  0
   -1.6692   -0.8115   -1.1249 H   0  0  0  0  0  0
   -0.2397   -0.5239   -2.0392 H   0  0  0  0  0  0
    0.5348   -4.7388    0.6398 H   0  0  0  0  0  0
   -0.8034   -4.6645    2.5147 H   0  0  0  0  0  0
   -1.0114   -6.1137    1.7506 H   0  0  0  0  0  0
    1.6670   -1.9777   -1.0978 H   0  0  0  0  0  0
    2.5536   -3.2950   -2.6820 H   0  0  0  0  0  0
    1.2993   -5.3657   -2.1938 H   0  0  0  0  0  0
   -0.1306   -4.7111   -2.9587 H   0  0  0  0  0  0
    2.5307   -5.2780   -4.3286 H   0  0  0  0  0  0
    1.0420   -6.1698   -4.5399 H   0  0  0  0  0  0
   -0.0639   -4.1943   -5.5406 H   0  0  0  0  0  0
    2.6181   -2.7568   -5.2078 H   0  0  0  0  0  0
    1.1846   -2.0982   -5.9595 H   0  0  0  0  0  0
   -0.0394   -2.1706   -3.8345 H   0  0  0  0  0  0
    1.4543   -1.2856   -3.6271 H   0  0  0  0  0  0
    2.4858   -4.6919   -6.6307 H   0  0  0  0  0  0
    4.7304    0.1279   -1.6736 H   0  0  0  0  0  0
    5.3209    1.7589   -1.3666 H   0  0  0  0  0  0
    4.2147    1.4625   -2.7010 H   0  0  0  0  0  0
    1.8187   -0.8499    0.1397 H   0  0  0  0  0  0
    1.3778   -3.5342   -0.6891 H   0  0  0  0  0  0
   -2.1743   -4.9559    1.6401 H   0  0  0  0  0  0
  1 11  1  0  0  0
  1 13  1  0  0  0
  1 31  1  0  0  0
  1 32  1  0  0  0
  2  3  1  0  0  0
  2 12  1  0  0  0
  2 14  1  0  0  0
  2 33  1  0  0  0
  3  4  1  0  0  0
  3 11  1  0  0  0
  3 34  1  0  0  0
  4  5  1  0  0  0
  4 29  1  0  0  0
  4 35  1  0  0  0
  5 14  1  0  0  0
  5 36  1  0  0  0
  5 37  1  0  0  0
  6 13  1  0  0  0
  6 38  1  0  0  0
  6 39  1  0  0  0
  6 40  1  0  0  0
  7 13  1  0  0  0
  7 41  1  0  0  0
  7 42  1  0  0  0
  7 43  1  0  0  0
  8  9  1  0  0  0
  8 14  1  0  0  0
  8 18  1  0  0  0
  8 44  1  0  0  0
  9 10  1  0  0  0
  9 45  1  0  0  0
  9 46  1  0  0  0
 10 16  1  0  0  0
 10 47  1  0  0  0
 10 48  1  0  0  0
 11 15  1  0  0  0
 11 49  1  0  0  0
 12 13  1  0  0  0
 12 50  1  0  0  0
 12 51  1  0  0  0
 14 75  1  0  0  0
 15 52  1  0  0  0
 16 17  1  0  0  0
 16 19  1  0  0  0
 16 53  1  0  0  0
 17 18  1  0  0  0
 17 21  1  0  0  0
 17 54  1  0  0  0
 18 55  1  0  0  0
 18 56  1  0  0  0
 19 20  1  0  0  0
 19 30  1  0  0  0
 19 57  1  0  0  0
 20 58  1  0  0  0
 20 59  1  0  0  0
 20 77  1  0  0  0
 21 22  1  0  0  0
 21 60  1  0  0  0
 21 76  1  0  0  0
 22 23  1  0  0  0
 22 27  1  0  0  0
 22 61  1  0  0  0
 23 24  1  0  0  0
 23 62  1  0  0  0
 23 63  1  0  0  0
 24 25  1  0  0  0
 24 64  1  0  0  0
 24 65  1  0  0  0
 25 26  1  0  0  0
 25 28  1  0  0  0
 25 66  1  0  0  0
 26 27  1  0  0  0
 26 67  1  0  0  0
 26 68  1  0  0  0
 27 69  1  0  0  0
 27 70  1  0  0  0
 28 71  1  0  0  0
 29 72  1  0  0  0
 29 73  1  0  0  0
 29 74  1  0  0  0
M  CHG  4  14   1  20   1  21   1  30  -1
M  END
> <entry id>
53

> <entry name>
pdb5t21-lig.1

> <PDB format version>
3.0

> <Source Path>
C:\Users\zzy\Desktop\hsp90-33sys\crystal-ligand

> <Source File>
pdb5t21-lig.pdb

> <Source File Index>
1

> <source file>
ligprep_hsp90-33system.maegz

> <source file index>
20

> <mmshare version>
37011

> <Ionization Penalty>
0.1149

> <Ionization Penalty Charging>
0.1149

> <Ionization Penalty Neutral>
0

> <State Penalty>
0.2542

> <Charging Adjusted Penalty>
0.369072

> <Tot Q>
2

> <Tot abs Q>
4

> <Chemistry Notes>
This compound contains an acetal/aminal-like group ( X-CH(R)-Y where X, Y are N, S, or O) that may be acid/base labile, releasing an aldehyde.

> <i_f3d_flags>
0

> <Force Field>
OPLS_2005

> <Energy>
79.3059

> <Chiralities Consistent>
1

> <Variant>
pdb5t21-lig-1

> <job name>
ligprep_hsp90-33system

> <subgroupid>
ligprep_hsp90-33system-out1

> <subgroup title>
ligprep_hsp90-33system-out1

> <subgroup collapsed>
0

$$$$
