pdb6f1n-lig
                    3D
 Structure written by MMmdl.
 75 77  0  0  1  0            999 V2000
   -3.7222   -0.6951   -3.0790 C   0  0  0  0  0  0
    1.5958    3.1677    5.6193 N   0  3  0  0  0  0
    2.1342    1.7348   -1.2383 C   0  0  2  0  0  0
    2.3807    0.2052   -1.0250 C   0  0  1  0  0  0
    3.8863   -0.1876   -0.9731 C   0  0  0  0  0  0
    1.8146    2.1142    1.0756 C   0  0  1  0  0  0
    2.0784    0.6454    1.4159 C   0  0  1  0  0  0
    1.5094    0.4645    2.8336 C   0  0  2  0  0  0
   -2.0213   -1.7125    0.9172 C   0  0  0  0  0  0
   -0.4906   -1.5872    0.9811 C   0  0  0  0  0  0
    0.0535   -0.4247    0.1104 C   0  0  2  0  0  0
   -0.4647   -0.6391   -1.3358 C   0  0  0  0  0  0
   -3.9131   -0.8309   -4.5938 C   0  0  0  0  0  0
   -2.3543   -0.9281   -2.7757 O   0  0  0  0  0  0
    2.2871    3.0619    2.5317 S   0  0  0  0  0  0
    2.0131    1.6670    3.6764 C   0  0  1  0  0  0
    1.0500    2.0556    4.8257 C   0  0  1  0  0  0
    2.7654    2.2632   -2.4610 N   0  3  0  0  0  0
    2.5886    2.5159   -0.0899 N   0  0  0  0  0  0
    4.4771   -0.3876   -2.3107 N   0  3  0  0  0  0
    1.9269   -0.8171    3.4367 N   0  3  0  0  0  0
   -1.9984   -0.7539   -1.4090 C   0  0  1  0  0  0
   -2.5151   -1.9087   -0.5273 C   0  0  1  0  0  0
    1.6146   -0.2846    0.2532 C   0  0  1  0  0  0
   -2.0201   -3.1317   -1.0627 O   0  0  0  0  0  0
   -2.7826   -4.2750   -0.7105 C   0  0  0  0  0  0
    1.0195    1.0662    5.6796 O   0  5  0  0  0  0
   -5.3712   -0.6081   -5.0290 C   0  0  0  0  0  0
   -5.5760   -0.7040   -6.5516 C   0  0  0  0  0  0
   -5.3053   -2.0157   -6.9965 O   0  0  0  0  0  0
   -6.8892   -0.2979   -6.8677 O   0  0  0  0  0  0
   -4.0162    0.3035   -2.7531 H   0  0  0  0  0  0
   -4.3605   -1.4140   -2.5655 H   0  0  0  0  0  0
    1.7252    3.9770    5.0299 H   0  0  0  0  0  0
    2.4814    2.8896    6.0167 H   0  0  0  0  0  0
    1.0656    1.9163   -1.3553 H   0  0  0  0  0  0
    1.9898   -0.3324   -1.8870 H   0  0  0  0  0  0
    4.4769    0.5503   -0.4300 H   0  0  0  0  0  0
    4.0149   -1.1324   -0.4445 H   0  0  0  0  0  0
    0.7538    2.2963    0.9019 H   0  0  0  0  0  0
    3.1582    0.5220    1.5201 H   0  0  0  0  0  0
    0.4207    0.5034    2.7969 H   0  0  0  0  0  0
   -2.3534   -2.5322    1.5538 H   0  0  0  0  0  0
   -2.4733   -0.8112    1.3333 H   0  0  0  0  0  0
   -0.2100   -1.4741    2.0235 H   0  0  0  0  0  0
   -0.0427   -2.5278    0.6574 H   0  0  0  0  0  0
   -0.4091    0.4969    0.4620 H   0  0  0  0  0  0
   -0.1768    0.1916   -1.9779 H   0  0  0  0  0  0
   -0.0126   -1.5356   -1.7627 H   0  0  0  0  0  0
   -3.2671   -0.1157   -5.1043 H   0  0  0  0  0  0
   -3.5821   -1.8224   -4.9050 H   0  0  0  0  0  0
    2.9992    1.4291    4.0815 H   0  0  0  0  0  0
    0.1391    2.4453    4.3691 H   0  0  0  0  0  0
    2.4390    1.7454   -3.2652 H   0  0  0  0  0  0
    3.7698    2.1901   -2.3896 H   0  0  0  0  0  0
    2.4385    3.5017   -0.2572 H   0  0  0  0  0  0
    5.4409   -0.6752   -2.2102 H   0  0  0  0  0  0
    4.4421    0.4690   -2.8430 H   0  0  0  0  0  0
    2.9345   -0.8698    3.4712 H   0  0  0  0  0  0
    1.5611   -1.5884    2.8972 H   0  0  0  0  0  0
   -2.4209    0.1877   -1.0529 H   0  0  0  0  0  0
   -3.6056   -1.9112   -0.5313 H   0  0  0  0  0  0
    1.9799   -1.2893    0.4681 H   0  0  0  0  0  0
   -2.3389   -5.1601   -1.1665 H   0  0  0  0  0  0
   -3.8073   -4.1909   -1.0744 H   0  0  0  0  0  0
   -2.8054   -4.4330    0.3676 H   0  0  0  0  0  0
   -6.0216   -1.3229   -4.5225 H   0  0  0  0  0  0
   -5.6839    0.3807   -4.6899 H   0  0  0  0  0  0
   -4.8920   -0.0256   -7.0626 H   0  0  0  0  0  0
   -5.8119   -2.6194   -6.4752 H   0  0  0  0  0  0
   -6.9801    0.6181   -6.6539 H   0  0  0  0  0  0
    2.5131    3.2353   -2.5740 H   0  0  0  0  0  0
    3.9696   -1.1107   -2.8013 H   0  0  0  0  0  0
    1.5610   -0.8636    4.3789 H   0  0  0  0  0  0
    0.9511    3.3889    6.3644 H   0  0  0  0  0  0
  1 13  1  0  0  0
  1 14  1  0  0  0
  1 32  1  0  0  0
  1 33  1  0  0  0
  2 17  1  0  0  0
  2 34  1  0  0  0
  2 35  1  0  0  0
  2 75  1  0  0  0
  3  4  1  0  0  0
  3 18  1  0  0  0
  3 19  1  0  0  0
  3 36  1  0  0  0
  4  5  1  0  0  0
  4 24  1  0  0  0
  4 37  1  0  0  0
  5 20  1  0  0  0
  5 38  1  0  0  0
  5 39  1  0  0  0
  6  7  1  0  0  0
  6 15  1  0  0  0
  6 19  1  0  0  0
  6 40  1  0  0  0
  7  8  1  0  0  0
  7 24  1  0  0  0
  7 41  1  0  0  0
  8 16  1  0  0  0
  8 21  1  0  0  0
  8 42  1  0  0  0
  9 10  1  0  0  0
  9 23  1  0  0  0
  9 43  1  0  0  0
  9 44  1  0  0  0
 10 11  1  0  0  0
 10 45  1  0  0  0
 10 46  1  0  0  0
 11 12  1  0  0  0
 11 24  1  0  0  0
 11 47  1  0  0  0
 12 22  1  0  0  0
 12 48  1  0  0  0
 12 49  1  0  0  0
 13 28  1  0  0  0
 13 50  1  0  0  0
 13 51  1  0  0  0
 14 22  1  0  0  0
 15 16  1  0  0  0
 16 17  1  0  0  0
 16 52  1  0  0  0
 17 27  1  0  0  0
 17 53  1  0  0  0
 18 54  1  0  0  0
 18 55  1  0  0  0
 18 72  1  0  0  0
 19 56  1  0  0  0
 20 57  1  0  0  0
 20 58  1  0  0  0
 20 73  1  0  0  0
 21 59  1  0  0  0
 21 60  1  0  0  0
 21 74  1  0  0  0
 22 23  1  0  0  0
 22 61  1  0  0  0
 23 25  1  0  0  0
 23 62  1  0  0  0
 24 63  1  0  0  0
 25 26  1  0  0  0
 26 64  1  0  0  0
 26 65  1  0  0  0
 26 66  1  0  0  0
 28 29  1  0  0  0
 28 67  1  0  0  0
 28 68  1  0  0  0
 29 30  1  0  0  0
 29 31  1  0  0  0
 29 69  1  0  0  0
 30 70  1  0  0  0
 31 71  1  0  0  0
M  CHG  5   2   1  18   1  20   1  21   1  27  -1
M  END
> <entry id>
62

> <entry name>
pdb6f1n-lig.1

> <PDB format version>
3.0

> <Source Path>
C:\Users\zzy\Desktop\hsp90-33sys\crystal-ligand

> <Source File>
pdb6f1n-lig.pdb

> <Source File Index>
1

> <source file>
ligprep_hsp90-33system.maegz

> <source file index>
29

> <mmshare version>
37011

> <Ionization Penalty>
0.0511

> <Ionization Penalty Charging>
0.0511

> <Ionization Penalty Neutral>
0

> <State Penalty>
0.0873

> <Charging Adjusted Penalty>
0.138383

> <Tot Q>
3

> <Tot abs Q>
5

> <Chemistry Notes>
This compound contains an acetal/aminal-like group ( X-CH(R)-Y where X, Y are N, S, or O) that may be acid/base labile, releasing an aldehyde.

> <i_f3d_flags>
0

> <Force Field>
OPLS_2005

> <Energy>
70.1203

> <Chiralities Consistent>
1

> <Variant>
pdb6f1n-lig-1

> <job name>
ligprep_hsp90-33system

> <subgroupid>
ligprep_hsp90-33system-out1

> <subgroup title>
ligprep_hsp90-33system-out1

> <subgroup collapsed>
0

$$$$
