pdb6el5-lig
                    3D
 Structure written by MMmdl.
 71 73  0  0  1  0            999 V2000
    0.7300   -1.6674    1.6406 Cl  0  0  0  0  0  0
   -0.5161   -0.4121    1.3756 C   0  0  2  0  0  0
   -1.8898   -1.1131    1.2979 C   0  0  1  0  0  0
   -2.1159   -1.6506    2.5965 O   0  0  0  0  0  0
   -2.7571   -2.9163    2.6095 C   0  0  0  0  0  0
   -3.0191   -0.1136    0.9455 C   0  0  2  0  0  0
   -4.2944   -0.7551    0.8565 O   0  0  0  0  0  0
   -4.5418   -1.6090   -0.2546 C   0  0  0  0  0  0
   -2.6887    0.6962   -0.3288 C   0  0  1  0  0  0
   -3.7081    1.6751   -0.4873 O   0  0  0  0  0  0
   -3.8885    2.1213   -1.8224 C   0  0  0  0  0  0
   -1.3277    1.3999   -0.1867 C   0  0  0  0  0  0
   -0.1834    0.4071    0.1057 C   0  0  1  0  0  0
    1.1689    1.1547    0.2295 C   0  0  0  0  0  0
    1.7656    1.6244   -1.1121 C   0  0  2  0  0  0
    2.1957    0.4705   -1.9439 N   0  3  0  0  0  0
    3.6560    0.4353   -1.8619 C   0  0  1  0  0  0
    4.4578   -0.2599   -2.9839 C   0  0  1  0  0  0
    3.7765   -0.1784   -4.2625 N   0  0  0  0  0  0
    4.0335    1.8949   -1.7585 C   0  0  2  0  0  0
    5.3921    1.9489   -1.2265 N   0  0  0  0  0  0
    6.2799    0.9514   -1.8586 C   0  0  1  0  0  0
    5.7554    0.4137   -3.1252 N   0  0  0  0  0  0
    2.9878    2.4559   -0.8806 N   0  3  1  0  0  0
    2.7397    3.9115   -1.0420 C   0  0  0  0  0  0
    3.8838    4.7815   -0.4900 C   0  0  0  0  0  0
    3.6180    6.2927   -0.5963 C   0  0  0  0  0  0
    2.5250    6.8045    0.3564 C   0  0  0  0  0  0
    2.3621    8.3272    0.2959 C   0  0  0  0  0  0
    7.4656    1.5124   -2.0825 F   0  0  0  0  0  0
   -0.4934    0.2461    2.2458 H   0  0  0  0  0  0
   -1.8190   -1.8990    0.5446 H   0  0  0  0  0  0
   -2.8597   -3.2585    3.6390 H   0  0  0  0  0  0
   -2.1714   -3.6596    2.0674 H   0  0  0  0  0  0
   -3.7552   -2.8728    2.1762 H   0  0  0  0  0  0
   -3.0994    0.5910    1.7750 H   0  0  0  0  0  0
   -5.4985   -2.1097   -0.1067 H   0  0  0  0  0  0
   -3.7838   -2.3830   -0.3656 H   0  0  0  0  0  0
   -4.6162   -1.0499   -1.1869 H   0  0  0  0  0  0
   -2.6479    0.0305   -1.1921 H   0  0  0  0  0  0
   -4.6926    2.8565   -1.8522 H   0  0  0  0  0  0
   -4.1676    1.2960   -2.4787 H   0  0  0  0  0  0
   -2.9910    2.5956   -2.2188 H   0  0  0  0  0  0
   -1.1136    1.9575   -1.0964 H   0  0  0  0  0  0
   -1.3871    2.1374    0.6152 H   0  0  0  0  0  0
   -0.1214   -0.2972   -0.7249 H   0  0  0  0  0  0
    1.0359    2.0129    0.8902 H   0  0  0  0  0  0
    1.9137    0.5309    0.7228 H   0  0  0  0  0  0
    1.0333    2.1873   -1.6910 H   0  0  0  0  0  0
    3.8851   -0.0634   -0.9163 H   0  0  0  0  0  0
    4.6075   -1.3098   -2.7298 H   0  0  0  0  0  0
    3.7785    0.7763   -4.5928 H   0  0  0  0  0  0
    4.2889   -0.7113   -4.9525 H   0  0  0  0  0  0
    3.9845    2.3709   -2.7400 H   0  0  0  0  0  0
    5.7753    2.8758   -1.3519 H   0  0  0  0  0  0
    6.4514    0.1275   -1.1642 H   0  0  0  0  0  0
    6.4307   -0.1995   -3.5618 H   0  0  0  0  0  0
    2.5532    4.1438   -2.0916 H   0  0  0  0  0  0
    1.8232    4.1517   -0.5027 H   0  0  0  0  0  0
    4.0870    4.5174    0.5488 H   0  0  0  0  0  0
    4.7982    4.5695   -1.0436 H   0  0  0  0  0  0
    4.5465    6.8203   -0.3739 H   0  0  0  0  0  0
    3.3657    6.5514   -1.6254 H   0  0  0  0  0  0
    1.5685    6.3408    0.1163 H   0  0  0  0  0  0
    2.7636    6.5115    1.3794 H   0  0  0  0  0  0
    1.5803    8.6613    0.9782 H   0  0  0  0  0  0
    2.0902    8.6553   -0.7077 H   0  0  0  0  0  0
    3.2860    8.8341    0.5760 H   0  0  0  0  0  0
    1.7834   -0.3975   -1.6328 H   0  0  0  0  0  0
    1.9399    0.6469   -2.9054 H   0  0  0  0  0  0
    3.2746    2.2884    0.0737 H   0  0  0  0  0  0
  1  2  1  0  0  0
  2  3  1  0  0  0
  2 13  1  0  0  0
  2 31  1  0  0  0
  3  4  1  0  0  0
  3  6  1  0  0  0
  3 32  1  0  0  0
  4  5  1  0  0  0
  5 33  1  0  0  0
  5 34  1  0  0  0
  5 35  1  0  0  0
  6  7  1  0  0  0
  6  9  1  0  0  0
  6 36  1  0  0  0
  7  8  1  0  0  0
  8 37  1  0  0  0
  8 38  1  0  0  0
  8 39  1  0  0  0
  9 10  1  0  0  0
  9 12  1  0  0  0
  9 40  1  0  0  0
 10 11  1  0  0  0
 11 41  1  0  0  0
 11 42  1  0  0  0
 11 43  1  0  0  0
 12 13  1  0  0  0
 12 44  1  0  0  0
 12 45  1  0  0  0
 13 14  1  0  0  0
 13 46  1  0  0  0
 14 15  1  0  0  0
 14 47  1  0  0  0
 14 48  1  0  0  0
 15 16  1  0  0  0
 15 24  1  0  0  0
 15 49  1  0  0  0
 16 17  1  0  0  0
 16 69  1  0  0  0
 16 70  1  0  0  0
 17 18  1  0  0  0
 17 20  1  0  0  0
 17 50  1  0  0  0
 18 19  1  0  0  0
 18 23  1  0  0  0
 18 51  1  0  0  0
 19 52  1  0  0  0
 19 53  1  0  0  0
 20 21  1  0  0  0
 20 24  1  0  0  0
 20 54  1  0  0  0
 21 22  1  0  0  0
 21 55  1  0  0  0
 22 23  1  0  0  0
 22 30  1  0  0  0
 22 56  1  0  0  0
 23 57  1  0  0  0
 24 25  1  0  0  0
 24 71  1  0  0  0
 25 26  1  0  0  0
 25 58  1  0  0  0
 25 59  1  0  0  0
 26 27  1  0  0  0
 26 60  1  0  0  0
 26 61  1  0  0  0
 27 28  1  0  0  0
 27 62  1  0  0  0
 27 63  1  0  0  0
 28 29  1  0  0  0
 28 64  1  0  0  0
 28 65  1  0  0  0
 29 66  1  0  0  0
 29 67  1  0  0  0
 29 68  1  0  0  0
M  CHG  2  16   1  24   1
M  END
> <entry id>
55

> <entry name>
pdb6el5-lig.1

> <PDB format version>
3.0

> <Source Path>
C:\Users\zzy\Desktop\hsp90-33sys\crystal-ligand

> <Source File>
pdb6el5-lig.pdb

> <Source File Index>
1

> <source file>
ligprep_hsp90-33system.maegz

> <source file index>
22

> <mmshare version>
37011

> <Ionization Penalty>
0.259

> <Ionization Penalty Charging>
0.259

> <Ionization Penalty Neutral>
0

> <State Penalty>
0.0412

> <Charging Adjusted Penalty>
0.30019

> <Tot Q>
2

> <Tot abs Q>
2

> <Chemistry Notes>
This compound contains an acetal/aminal-like group ( X-CH(R)-Y where X, Y are N, S, or O) that may be acid/base labile, releasing an aldehyde.

> <i_f3d_flags>
0

> <Force Field>
OPLS_2005

> <Energy>
64.1383

> <Chiralities Consistent>
1

> <Variant>
pdb6el5-lig-1

> <job name>
ligprep_hsp90-33system

> <subgroupid>
ligprep_hsp90-33system-out1

> <subgroup title>
ligprep_hsp90-33system-out1

> <subgroup collapsed>
0

$$$$
