pdb6eln-lig
                    3D
 Structure written by MMmdl.
 54 56  0  0  1  0            999 V2000
   -0.3951    2.1897    1.5778 N   0  0  0  0  0  0
    0.1278    1.8310    0.3159 N   0  0  0  0  0  0
    0.1509    0.3734    0.1615 C   0  0  2  0  0  0
   -0.5998   -0.1933    1.3935 C   0  0  1  0  0  0
   -1.1172    1.0547    2.1316 C   0  0  1  0  0  0
    1.5947   -0.2018   -0.0263 C   0  0  2  0  0  0
   -1.6713   -1.2740    1.0576 C   0  0  2  0  0  0
   -0.9707    0.9863    3.6604 C   0  0  0  0  0  0
   -2.8466   -0.7939    0.1708 C   0  0  0  0  0  0
   -3.7748   -1.9609   -0.2063 C   0  0  0  0  0  0
   -4.3113   -2.6832    1.0467 C   0  0  2  0  0  0
   -3.1466   -3.1482    1.9367 C   0  0  0  0  0  0
   -2.2279   -1.9752    2.3128 C   0  0  0  0  0  0
    2.3873    0.3513   -1.2486 C   0  0  1  0  0  0
    1.7724   -0.0824   -2.5916 C   0  0  0  0  0  0
    1.7242   -1.6169   -2.6896 C   0  0  1  0  0  0
    1.0021   -2.2366   -1.4813 C   0  0  0  0  0  0
    1.6109   -1.7468   -0.1517 C   0  0  0  0  0  0
    1.0703   -1.9981   -3.8817 O   0  0  0  0  0  0
    2.5627    1.7530   -1.2223 O   0  0  0  0  0  0
   -5.0635   -3.8367    0.6929 O   0  0  0  0  0  0
   -6.3844   -3.5623    0.2525 C   0  0  0  0  0  0
    0.3834    2.4382    2.1848 H   0  0  0  0  0  0
   -0.4486    2.2542   -0.4087 H   0  0  0  0  0  0
   -0.4130    0.1587   -0.7426 H   0  0  0  0  0  0
    0.1437   -0.6558    2.0441 H   0  0  0  0  0  0
   -2.1672    1.2131    1.8941 H   0  0  0  0  0  0
    2.1593    0.0557    0.8712 H   0  0  0  0  0  0
   -1.1581   -2.0488    0.4915 H   0  0  0  0  0  0
   -1.5177    0.1488    4.0888 H   0  0  0  0  0  0
   -1.3523    1.8950    4.1266 H   0  0  0  0  0  0
    0.0745    0.8807    3.9529 H   0  0  0  0  0  0
   -3.4342   -0.0364    0.6882 H   0  0  0  0  0  0
   -2.4859   -0.3278   -0.7445 H   0  0  0  0  0  0
   -4.5966   -1.5797   -0.8119 H   0  0  0  0  0  0
   -3.2320   -2.6695   -0.8332 H   0  0  0  0  0  0
   -4.9336   -2.0000    1.6281 H   0  0  0  0  0  0
   -3.5357   -3.6169    2.8411 H   0  0  0  0  0  0
   -2.5675   -3.9134    1.4177 H   0  0  0  0  0  0
   -1.4103   -2.3378    2.9364 H   0  0  0  0  0  0
   -2.7956   -1.2673    2.9159 H   0  0  0  0  0  0
    3.3978   -0.0575   -1.2019 H   0  0  0  0  0  0
    0.7720    0.3382   -2.6996 H   0  0  0  0  0  0
    2.3636    0.3161   -3.4174 H   0  0  0  0  0  0
    2.7431   -2.0038   -2.7318 H   0  0  0  0  0  0
   -0.0584   -1.9886   -1.5220 H   0  0  0  0  0  0
    1.0619   -3.3243   -1.5322 H   0  0  0  0  0  0
    2.6433   -2.0944   -0.0950 H   0  0  0  0  0  0
    1.1110   -2.2228    0.6902 H   0  0  0  0  0  0
    0.1879   -1.6606   -3.8621 H   0  0  0  0  0  0
    2.9810    1.9889   -0.4084 H   0  0  0  0  0  0
   -6.8984   -4.5007    0.0444 H   0  0  0  0  0  0
   -6.3939   -2.9712   -0.6628 H   0  0  0  0  0  0
   -6.9541   -3.0333    1.0174 H   0  0  0  0  0  0
  1  2  1  0  0  0
  1  5  1  0  0  0
  1 23  1  0  0  0
  2  3  1  0  0  0
  2 24  1  0  0  0
  3  4  1  0  0  0
  3  6  1  0  0  0
  3 25  1  0  0  0
  4  5  1  0  0  0
  4  7  1  0  0  0
  4 26  1  0  0  0
  5  8  1  0  0  0
  5 27  1  0  0  0
  6 14  1  0  0  0
  6 18  1  0  0  0
  6 28  1  0  0  0
  7  9  1  0  0  0
  7 13  1  0  0  0
  7 29  1  0  0  0
  8 30  1  0  0  0
  8 31  1  0  0  0
  8 32  1  0  0  0
  9 10  1  0  0  0
  9 33  1  0  0  0
  9 34  1  0  0  0
 10 11  1  0  0  0
 10 35  1  0  0  0
 10 36  1  0  0  0
 11 12  1  0  0  0
 11 21  1  0  0  0
 11 37  1  0  0  0
 12 13  1  0  0  0
 12 38  1  0  0  0
 12 39  1  0  0  0
 13 40  1  0  0  0
 13 41  1  0  0  0
 14 15  1  0  0  0
 14 20  1  0  0  0
 14 42  1  0  0  0
 15 16  1  0  0  0
 15 43  1  0  0  0
 15 44  1  0  0  0
 16 17  1  0  0  0
 16 19  1  0  0  0
 16 45  1  0  0  0
 17 18  1  0  0  0
 17 46  1  0  0  0
 17 47  1  0  0  0
 18 48  1  0  0  0
 18 49  1  0  0  0
 19 50  1  0  0  0
 20 51  1  0  0  0
 21 22  1  0  0  0
 22 52  1  0  0  0
 22 53  1  0  0  0
 22 54  1  0  0  0
M  END
> <entry id>
56

> <entry name>
pdb6eln-lig.1

> <PDB format version>
3.0

> <Source Path>
C:\Users\zzy\Desktop\hsp90-33sys\crystal-ligand

> <Source File>
pdb6eln-lig.pdb

> <Source File Index>
1

> <source file>
ligprep_hsp90-33system.maegz

> <source file index>
23

> <mmshare version>
37011

> <Ionization Penalty>
0.3176

> <Ionization Penalty Charging>
0

> <Ionization Penalty Neutral>
0.3176

> <State Penalty>
0.2666

> <Charging Adjusted Penalty>
0.266557

> <Tot Q>
0

> <Tot abs Q>
0

> <i_f3d_flags>
0

> <Force Field>
OPLS_2005

> <Energy>
49.323

> <Chiralities Consistent>
1

> <Variant>
pdb6eln-lig-1

> <job name>
ligprep_hsp90-33system

> <subgroupid>
ligprep_hsp90-33system-out1

> <subgroup title>
ligprep_hsp90-33system-out1

> <subgroup collapsed>
0

$$$$
