pdb6elp-lig
                    3D
 Structure written by MMmdl.
 69 72  0  0  1  0            999 V2000
    0.0387   -0.0166   -0.0876 C   0  0  1  0  0  0
   -0.4776   -0.7472   -1.3485 C   0  0  2  0  0  0
   -2.0147   -0.7244   -1.4319 C   0  0  0  0  0  0
   -2.7449    0.9804    1.2609 C   0  0  2  0  0  0
   -2.3891    1.8725    2.4582 C   0  0  0  0  0  0
   -3.4570    2.9521    2.3701 C   0  0  0  0  0  0
   -4.9135   -0.0602    1.9601 C   0  0  1  0  0  0
   -4.7188   -1.4641    1.3221 C   0  0  1  0  0  0
   -5.3781   -2.5745    2.1609 C   0  0  0  0  0  0
   -6.8686   -2.3034    2.4124 C   0  0  0  0  0  0
    1.5867   -0.0128   -0.0215 C   0  0  0  0  0  0
    1.5325   -2.0616    4.0711 C   0  0  0  0  0  0
    1.8989    0.2410    5.0466 C   0  0  0  0  0  0
    2.3516    0.7155    3.7204 N   0  3  0  0  0  0
    1.9862   -1.5161    2.7084 C   0  0  0  0  0  0
   -2.6010    0.6961   -1.3226 C   0  0  1  0  0  0
   -2.0883    1.4618   -0.0748 C   0  0  2  0  0  0
   -0.5379    1.4175   -0.0575 C   0  0  0  0  0  0
   -0.0687   -2.1011   -1.3376 O   0  0  0  0  0  0
   -4.5971    2.3415    1.6932 N   0  0  0  0  0  0
   -4.2254    1.0398    1.2249 N   0  0  0  0  0  0
   -7.0734   -0.9203    3.0419 C   0  0  0  0  0  0
   -6.4296    0.1883    2.1937 C   0  0  0  0  0  0
   -5.3674   -1.5068   -0.3437 Cl  0  0  0  0  0  0
   -2.2872    1.4204   -2.4965 O   0  0  0  0  0  0
    2.1790   -1.2613    5.2101 C   0  0  0  0  0  0
    1.7151    0.0003    2.5894 C   0  0  2  0  0  0
    2.2076    0.5977    1.2542 C   0  0  0  0  0  0
   -0.3362   -0.5612    0.7781 H   0  0  0  0  0  0
   -0.0595   -0.2767   -2.2395 H   0  0  0  0  0  0
   -2.3479   -1.1936   -2.3587 H   0  0  0  0  0  0
   -2.4192   -1.3363   -0.6276 H   0  0  0  0  0  0
   -2.4109   -0.0350    1.4587 H   0  0  0  0  0  0
   -2.5195    1.3085    3.3826 H   0  0  0  0  0  0
   -1.3816    2.2802    2.4742 H   0  0  0  0  0  0
   -3.7508    3.3331    3.3483 H   0  0  0  0  0  0
   -3.1071    3.7921    1.7697 H   0  0  0  0  0  0
   -4.4596   -0.0978    2.9514 H   0  0  0  0  0  0
   -3.6623   -1.7096    1.2428 H   0  0  0  0  0  0
   -5.2530   -3.5397    1.6692 H   0  0  0  0  0  0
   -4.8629   -2.6516    3.1193 H   0  0  0  0  0  0
   -7.4236   -2.3665    1.4759 H   0  0  0  0  0  0
   -7.2813   -3.0732    3.0649 H   0  0  0  0  0  0
    1.9603   -1.0315   -0.1245 H   0  0  0  0  0  0
    1.9778    0.5219   -0.8878 H   0  0  0  0  0  0
    0.4463   -2.0005    4.1485 H   0  0  0  0  0  0
    1.7918   -3.1171    4.1586 H   0  0  0  0  0  0
    2.4137    0.8082    5.8224 H   0  0  0  0  0  0
    0.8327    0.4439    5.1572 H   0  0  0  0  0  0
    2.1440    1.7008    3.6408 H   0  0  0  0  0  0
    3.0504   -1.7137    2.5714 H   0  0  0  0  0  0
    1.4660   -2.0609    1.9204 H   0  0  0  0  0  0
   -3.6881    0.6326   -1.3065 H   0  0  0  0  0  0
   -2.3756    2.5065   -0.2031 H   0  0  0  0  0  0
   -0.1502    1.9682    0.7938 H   0  0  0  0  0  0
   -0.1604    1.9599   -0.9253 H   0  0  0  0  0  0
   -0.4686   -2.5314   -0.5976 H   0  0  0  0  0  0
   -4.8975    2.9116    0.9051 H   0  0  0  0  0  0
   -8.1391   -0.7232    3.1626 H   0  0  0  0  0  0
   -6.6417   -0.9077    4.0435 H   0  0  0  0  0  0
   -6.5972    1.1318    2.7130 H   0  0  0  0  0  0
   -6.9493    0.2725    1.2387 H   0  0  0  0  0  0
   -2.7224    2.2583   -2.4580 H   0  0  0  0  0  0
    1.8029   -1.6100    6.1723 H   0  0  0  0  0  0
    3.2558   -1.4364    5.2162 H   0  0  0  0  0  0
    0.6423    0.1759    2.6776 H   0  0  0  0  0  0
    3.2909    0.4842    1.1933 H   0  0  0  0  0  0
    2.0344    1.6742    1.2574 H   0  0  0  0  0  0
    3.3518    0.5885    3.6576 H   0  0  0  0  0  0
  1  2  1  0  0  0
  1 11  1  0  0  0
  1 18  1  0  0  0
  1 29  1  0  0  0
  2  3  1  0  0  0
  2 19  1  0  0  0
  2 30  1  0  0  0
  3 16  1  0  0  0
  3 31  1  0  0  0
  3 32  1  0  0  0
  4  5  1  0  0  0
  4 17  1  0  0  0
  4 21  1  0  0  0
  4 33  1  0  0  0
  5  6  1  0  0  0
  5 34  1  0  0  0
  5 35  1  0  0  0
  6 20  1  0  0  0
  6 36  1  0  0  0
  6 37  1  0  0  0
  7  8  1  0  0  0
  7 21  1  0  0  0
  7 23  1  0  0  0
  7 38  1  0  0  0
  8  9  1  0  0  0
  8 24  1  0  0  0
  8 39  1  0  0  0
  9 10  1  0  0  0
  9 40  1  0  0  0
  9 41  1  0  0  0
 10 22  1  0  0  0
 10 42  1  0  0  0
 10 43  1  0  0  0
 11 28  1  0  0  0
 11 44  1  0  0  0
 11 45  1  0  0  0
 12 15  1  0  0  0
 12 26  1  0  0  0
 12 46  1  0  0  0
 12 47  1  0  0  0
 13 14  1  0  0  0
 13 26  1  0  0  0
 13 48  1  0  0  0
 13 49  1  0  0  0
 14 27  1  0  0  0
 14 50  1  0  0  0
 14 69  1  0  0  0
 15 27  1  0  0  0
 15 51  1  0  0  0
 15 52  1  0  0  0
 16 17  1  0  0  0
 16 25  1  0  0  0
 16 53  1  0  0  0
 17 18  1  0  0  0
 17 54  1  0  0  0
 18 55  1  0  0  0
 18 56  1  0  0  0
 19 57  1  0  0  0
 20 21  1  0  0  0
 20 58  1  0  0  0
 22 23  1  0  0  0
 22 59  1  0  0  0
 22 60  1  0  0  0
 23 61  1  0  0  0
 23 62  1  0  0  0
 25 63  1  0  0  0
 26 64  1  0  0  0
 26 65  1  0  0  0
 27 28  1  0  0  0
 27 66  1  0  0  0
 28 67  1  0  0  0
 28 68  1  0  0  0
M  CHG  1  14   1
M  END
> <entry id>
58

> <entry name>
pdb6elp-lig.1

> <PDB format version>
3.0

> <Source Path>
C:\Users\zzy\Desktop\hsp90-33sys\crystal-ligand

> <Source File>
pdb6elp-lig.pdb

> <Source File Index>
1

> <source file>
ligprep_hsp90-33system.maegz

> <source file index>
25

> <mmshare version>
37011

> <Ionization Penalty>
0.0879

> <Ionization Penalty Charging>
0.0001

> <Ionization Penalty Neutral>
0.0878

> <State Penalty>
0.0721

> <Charging Adjusted Penalty>
0.0722278

> <Tot Q>
1

> <Tot abs Q>
1

> <i_f3d_flags>
0

> <Force Field>
OPLS_2005

> <Energy>
65.8291

> <Chiralities Consistent>
1

> <Variant>
pdb6elp-lig-1

> <job name>
ligprep_hsp90-33system

> <subgroupid>
ligprep_hsp90-33system-out1

> <subgroup title>
ligprep_hsp90-33system-out1

> <subgroup collapsed>
0

$$$$
