pdb6ey8-lig
                    3D
 Structure written by MMmdl.
 71 74  0  0  1  0            999 V2000
   -0.2694    0.1184   -0.6107 C   0  0  1  0  0  0
   -0.6001   -0.8860   -1.7661 C   0  0  2  0  0  0
   -2.0386   -1.4559   -1.6890 C   0  0  0  0  0  0
    0.3136   -1.9673   -1.7729 O   0  0  0  0  0  0
   -2.1146   -0.9339    0.7506 C   0  0  1  0  0  0
   -2.2941   -2.0187   -0.2865 C   0  0  1  0  0  0
   -2.6952   -1.6423    1.9705 C   0  0  1  0  0  0
   -3.1332   -0.6695    3.0816 C   0  0  0  0  0  0
   -3.5026   -1.3471    4.4181 C   0  0  0  0  0  0
   -2.2724   -1.9518    5.1326 C   0  0  0  0  0  0
   -2.6487   -2.5897    6.4799 C   0  0  0  0  0  0
   -4.2173   -0.3486    5.3530 C   0  0  0  0  0  0
    0.8703    2.9676    0.2945 C   0  0  0  0  0  0
    2.8906    1.6726    0.8920 C   0  0  0  0  0  0
    4.7362    0.5589    2.2382 C   0  0  0  0  0  0
    5.0872   -0.4941    3.3021 C   0  0  0  0  0  0
   -0.6557   -0.4692    0.7765 C   0  0  0  0  0  0
    1.2049    0.6207   -0.6296 C   0  0  2  0  0  0
    1.4676    1.6147    0.4635 N   0  3  2  0  0  0
    1.4366    1.2416   -1.7621 O   0  5  0  0  0  0
   -3.6007   -2.5888    0.0086 N   0  0  0  0  0  0
   -3.7974   -2.4517    1.4205 N   0  0  0  0  0  0
   -3.3630   -1.5837    7.3942 C   0  0  0  0  0  0
   -4.5956   -0.9903    6.6974 C   0  0  0  0  0  0
    3.2203    0.6049    1.9578 C   0  0  1  0  0  0
    4.3065   -0.2477    4.6024 C   0  0  1  0  0  0
    2.7934   -0.2080    4.3380 C   0  0  0  0  0  0
    2.4459    0.8447    3.2732 C   0  0  0  0  0  0
    4.6804   -1.5281    5.7848 Cl  0  0  0  0  0  0
   -0.9235    0.9758   -0.7742 H   0  0  0  0  0  0
   -0.4903   -0.3805   -2.7261 H   0  0  0  0  0  0
   -2.7590   -0.6664   -1.9066 H   0  0  0  0  0  0
   -2.1864   -2.2277   -2.4454 H   0  0  0  0  0  0
    1.1736   -1.6244   -1.9647 H   0  0  0  0  0  0
   -2.7556   -0.0853    0.5009 H   0  0  0  0  0  0
   -1.5657   -2.8087   -0.0950 H   0  0  0  0  0  0
   -1.9381   -2.3296    2.3473 H   0  0  0  0  0  0
   -2.3382    0.0543    3.2650 H   0  0  0  0  0  0
   -3.9824   -0.0887    2.7185 H   0  0  0  0  0  0
   -4.2044   -2.1551    4.2065 H   0  0  0  0  0  0
   -1.7996   -2.7092    4.5082 H   0  0  0  0  0  0
   -1.5226   -1.1765    5.2960 H   0  0  0  0  0  0
   -3.2958   -3.4508    6.3078 H   0  0  0  0  0  0
   -1.7540   -2.9700    6.9736 H   0  0  0  0  0  0
   -3.5745    0.5143    5.5320 H   0  0  0  0  0  0
   -5.1182    0.0338    4.8716 H   0  0  0  0  0  0
    1.3845    3.5402   -0.4786 H   0  0  0  0  0  0
    0.9440    3.5278    1.2267 H   0  0  0  0  0  0
   -0.1865    2.9136    0.0371 H   0  0  0  0  0  0
    3.5373    1.5630    0.0202 H   0  0  0  0  0  0
    3.1189    2.6549    1.3080 H   0  0  0  0  0  0
    5.0806    1.5391    2.5707 H   0  0  0  0  0  0
    5.2786    0.3381    1.3182 H   0  0  0  0  0  0
    4.8591   -1.4893    2.9180 H   0  0  0  0  0  0
    6.1591   -0.4771    3.5013 H   0  0  0  0  0  0
    0.0016   -1.3007    1.0347 H   0  0  0  0  0  0
   -0.5367    0.2786    1.5600 H   0  0  0  0  0  0
    1.7916   -0.2587   -0.3659 H   0  0  0  0  0  0
   -3.6323   -3.5732   -0.2492 H   0  0  0  0  0  0
   -4.6870   -1.9806    1.5728 H   0  0  0  0  0  0
   -3.6576   -2.0691    8.3250 H   0  0  0  0  0  0
   -2.6747   -0.7825    7.6661 H   0  0  0  0  0  0
   -5.0675   -0.2493    7.3434 H   0  0  0  0  0  0
   -5.3364   -1.7739    6.5330 H   0  0  0  0  0  0
    2.9351   -0.3755    1.5753 H   0  0  0  0  0  0
    4.6261    0.6951    5.0482 H   0  0  0  0  0  0
    2.4510   -1.1888    4.0050 H   0  0  0  0  0  0
    2.2581    0.0096    5.2628 H   0  0  0  0  0  0
    2.6727    1.8393    3.6593 H   0  0  0  0  0  0
    1.3713    0.8239    3.0914 H   0  0  0  0  0  0
    0.9866    1.2346    1.2656 H   0  0  0  0  0  0
  1  2  1  0  0  0
  1 17  1  0  0  0
  1 18  1  0  0  0
  1 30  1  0  0  0
  2  3  1  0  0  0
  2  4  1  0  0  0
  2 31  1  0  0  0
  3  6  1  0  0  0
  3 32  1  0  0  0
  3 33  1  0  0  0
  4 34  1  0  0  0
  5  6  1  0  0  0
  5  7  1  0  0  0
  5 17  1  0  0  0
  5 35  1  0  0  0
  6 21  1  0  0  0
  6 36  1  0  0  0
  7  8  1  0  0  0
  7 22  1  0  0  0
  7 37  1  0  0  0
  8  9  1  0  0  0
  8 38  1  0  0  0
  8 39  1  0  0  0
  9 10  1  0  0  0
  9 12  1  0  0  0
  9 40  1  0  0  0
 10 11  1  0  0  0
 10 41  1  0  0  0
 10 42  1  0  0  0
 11 23  1  0  0  0
 11 43  1  0  0  0
 11 44  1  0  0  0
 12 24  1  0  0  0
 12 45  1  0  0  0
 12 46  1  0  0  0
 13 19  1  0  0  0
 13 47  1  0  0  0
 13 48  1  0  0  0
 13 49  1  0  0  0
 14 19  1  0  0  0
 14 25  1  0  0  0
 14 50  1  0  0  0
 14 51  1  0  0  0
 15 16  1  0  0  0
 15 25  1  0  0  0
 15 52  1  0  0  0
 15 53  1  0  0  0
 16 26  1  0  0  0
 16 54  1  0  0  0
 16 55  1  0  0  0
 17 56  1  0  0  0
 17 57  1  0  0  0
 18 19  1  0  0  0
 18 20  1  0  0  0
 18 58  1  0  0  0
 19 71  1  0  0  0
 21 22  1  0  0  0
 21 59  1  0  0  0
 22 60  1  0  0  0
 23 24  1  0  0  0
 23 61  1  0  0  0
 23 62  1  0  0  0
 24 63  1  0  0  0
 24 64  1  0  0  0
 25 28  1  0  0  0
 25 65  1  0  0  0
 26 27  1  0  0  0
 26 29  1  0  0  0
 26 66  1  0  0  0
 27 28  1  0  0  0
 27 67  1  0  0  0
 27 68  1  0  0  0
 28 69  1  0  0  0
 28 70  1  0  0  0
M  CHG  2  19   1  20  -1
M  END
> <entry id>
59

> <entry name>
pdb6ey8-lig.1

> <PDB format version>
3.0

> <Source Path>
C:\Users\zzy\Desktop\hsp90-33sys\crystal-ligand

> <Source File>
pdb6ey8-lig.pdb

> <Source File Index>
1

> <source file>
ligprep_hsp90-33system.maegz

> <source file index>
26

> <mmshare version>
37011

> <Ionization Penalty>
0.5656

> <Ionization Penalty Charging>
0.1835

> <Ionization Penalty Neutral>
0.3821

> <State Penalty>
0

> <Charging Adjusted Penalty>
0.183471

> <Tot Q>
0

> <Tot abs Q>
2

> <Chemistry Notes>
This compound contains an acetal/aminal-like group ( X-CH(R)-Y where X, Y are N, S, or O) that may be acid/base labile, releasing an aldehyde.

> <i_f3d_flags>
0

> <Force Field>
OPLS_2005

> <Energy>
59.0143

> <Chiralities Consistent>
1

> <Variant>
pdb6ey8-lig-1

> <job name>
ligprep_hsp90-33system

> <tautomer probability>
1

> <subgroupid>
ligprep_hsp90-33system-out1

> <subgroup title>
ligprep_hsp90-33system-out1

> <subgroup collapsed>
0

$$$$
